
---------- Begin Simulation Statistics ----------
simSeconds                                   0.007152                       # Number of seconds simulated (Second)
simTicks                                   7152389118                       # Number of ticks simulated (Tick)
finalTick                                  7152389118                       # Number of ticks from beginning of simulation (restored from checkpoints and never reset) (Tick)
simFreq                                  1000000000000                       # The number of ticks per simulated second ((Tick/Second))
hostSeconds                                     87.35                       # Real time elapsed on the host (Second)
hostTickRate                                 81882252                       # The number of ticks simulated per host second (ticks/s) ((Tick/Second))
hostMemory                                    1306656                       # Number of bytes of host memory used (Byte)
simInsts                                     33954546                       # Number of instructions simulated (Count)
simOps                                       33954560                       # Number of ops (including micro ops) simulated (Count)
hostInstRate                                   388719                       # Simulator instruction rate (inst/s) ((Count/Second))
hostOpRate                                     388719                       # Simulator op (including micro ops) rate (op/s) ((Count/Second))
board.cache_hierarchy.clusters.dptw_cache.blockedCycles::no_mshrs            0                       # number of cycles access was blocked (Cycle)
board.cache_hierarchy.clusters.dptw_cache.blockedCycles::no_targets            0                       # number of cycles access was blocked (Cycle)
board.cache_hierarchy.clusters.dptw_cache.blockedCauses::no_mshrs            0                       # number of times access was blocked (Count)
board.cache_hierarchy.clusters.dptw_cache.blockedCauses::no_targets            0                       # number of times access was blocked (Count)
board.cache_hierarchy.clusters.dptw_cache.avgBlocked::no_mshrs          nan                       # average number of cycles each access was blocked ((Cycle/Count))
board.cache_hierarchy.clusters.dptw_cache.avgBlocked::no_targets          nan                       # average number of cycles each access was blocked ((Cycle/Count))
board.cache_hierarchy.clusters.dptw_cache.replacements            0                       # number of replacements (Count)
board.cache_hierarchy.clusters.dptw_cache.power_state.pwrStateResidencyTicks::UNDEFINED   7152389118                       # Cumulative time (in ticks) in various power states (Tick)
board.cache_hierarchy.clusters.dptw_cache.tags.tagsInUse            0                       # Average ticks per tags in use ((Tick/Count))
board.cache_hierarchy.clusters.dptw_cache.tags.totalRefs            0                       # Total number of references to valid blocks. (Count)
board.cache_hierarchy.clusters.dptw_cache.tags.sampledRefs            0                       # Sample count of references to valid blocks. (Count)
board.cache_hierarchy.clusters.dptw_cache.tags.avgRefs          nan                       # Average number of references to valid blocks. ((Count/Count))
board.cache_hierarchy.clusters.dptw_cache.tags.warmupTick            0                       # The tick when the warmup percentage was hit. (Tick)
board.cache_hierarchy.clusters.dptw_cache.tags.tagAccesses            0                       # Number of tag accesses (Count)
board.cache_hierarchy.clusters.dptw_cache.tags.dataAccesses            0                       # Number of data accesses (Count)
board.cache_hierarchy.clusters.dptw_cache.tags.power_state.pwrStateResidencyTicks::UNDEFINED   7152389118                       # Cumulative time (in ticks) in various power states (Tick)
board.cache_hierarchy.clusters.iptw_cache.blockedCycles::no_mshrs            0                       # number of cycles access was blocked (Cycle)
board.cache_hierarchy.clusters.iptw_cache.blockedCycles::no_targets            0                       # number of cycles access was blocked (Cycle)
board.cache_hierarchy.clusters.iptw_cache.blockedCauses::no_mshrs            0                       # number of times access was blocked (Count)
board.cache_hierarchy.clusters.iptw_cache.blockedCauses::no_targets            0                       # number of times access was blocked (Count)
board.cache_hierarchy.clusters.iptw_cache.avgBlocked::no_mshrs          nan                       # average number of cycles each access was blocked ((Cycle/Count))
board.cache_hierarchy.clusters.iptw_cache.avgBlocked::no_targets          nan                       # average number of cycles each access was blocked ((Cycle/Count))
board.cache_hierarchy.clusters.iptw_cache.replacements            0                       # number of replacements (Count)
board.cache_hierarchy.clusters.iptw_cache.power_state.pwrStateResidencyTicks::UNDEFINED   7152389118                       # Cumulative time (in ticks) in various power states (Tick)
board.cache_hierarchy.clusters.iptw_cache.tags.tagsInUse            0                       # Average ticks per tags in use ((Tick/Count))
board.cache_hierarchy.clusters.iptw_cache.tags.totalRefs            0                       # Total number of references to valid blocks. (Count)
board.cache_hierarchy.clusters.iptw_cache.tags.sampledRefs            0                       # Sample count of references to valid blocks. (Count)
board.cache_hierarchy.clusters.iptw_cache.tags.avgRefs          nan                       # Average number of references to valid blocks. ((Count/Count))
board.cache_hierarchy.clusters.iptw_cache.tags.warmupTick            0                       # The tick when the warmup percentage was hit. (Tick)
board.cache_hierarchy.clusters.iptw_cache.tags.tagAccesses            0                       # Number of tag accesses (Count)
board.cache_hierarchy.clusters.iptw_cache.tags.dataAccesses            0                       # Number of data accesses (Count)
board.cache_hierarchy.clusters.iptw_cache.tags.power_state.pwrStateResidencyTicks::UNDEFINED   7152389118                       # Cumulative time (in ticks) in various power states (Tick)
board.cache_hierarchy.clusters.l1dcache.demandHits::processor.cores.core.data     12416167                       # number of demand (read+write) hits (Count)
board.cache_hierarchy.clusters.l1dcache.demandHits::total     12416167                       # number of demand (read+write) hits (Count)
board.cache_hierarchy.clusters.l1dcache.overallHits::processor.cores.core.data     12416167                       # number of overall hits (Count)
board.cache_hierarchy.clusters.l1dcache.overallHits::total     12416167                       # number of overall hits (Count)
board.cache_hierarchy.clusters.l1dcache.demandMisses::processor.cores.core.data        64170                       # number of demand (read+write) misses (Count)
board.cache_hierarchy.clusters.l1dcache.demandMisses::total        64170                       # number of demand (read+write) misses (Count)
board.cache_hierarchy.clusters.l1dcache.overallMisses::processor.cores.core.data        64170                       # number of overall misses (Count)
board.cache_hierarchy.clusters.l1dcache.overallMisses::total        64170                       # number of overall misses (Count)
board.cache_hierarchy.clusters.l1dcache.demandMissLatency::processor.cores.core.data    366485814                       # number of demand (read+write) miss ticks (Tick)
board.cache_hierarchy.clusters.l1dcache.demandMissLatency::total    366485814                       # number of demand (read+write) miss ticks (Tick)
board.cache_hierarchy.clusters.l1dcache.overallMissLatency::processor.cores.core.data    366485814                       # number of overall miss ticks (Tick)
board.cache_hierarchy.clusters.l1dcache.overallMissLatency::total    366485814                       # number of overall miss ticks (Tick)
board.cache_hierarchy.clusters.l1dcache.demandAccesses::processor.cores.core.data     12480337                       # number of demand (read+write) accesses (Count)
board.cache_hierarchy.clusters.l1dcache.demandAccesses::total     12480337                       # number of demand (read+write) accesses (Count)
board.cache_hierarchy.clusters.l1dcache.overallAccesses::processor.cores.core.data     12480337                       # number of overall (read+write) accesses (Count)
board.cache_hierarchy.clusters.l1dcache.overallAccesses::total     12480337                       # number of overall (read+write) accesses (Count)
board.cache_hierarchy.clusters.l1dcache.demandMissRate::processor.cores.core.data     0.005142                       # miss rate for demand accesses (Ratio)
board.cache_hierarchy.clusters.l1dcache.demandMissRate::total     0.005142                       # miss rate for demand accesses (Ratio)
board.cache_hierarchy.clusters.l1dcache.overallMissRate::processor.cores.core.data     0.005142                       # miss rate for overall accesses (Ratio)
board.cache_hierarchy.clusters.l1dcache.overallMissRate::total     0.005142                       # miss rate for overall accesses (Ratio)
board.cache_hierarchy.clusters.l1dcache.demandAvgMissLatency::processor.cores.core.data  5711.170547                       # average overall miss latency in ticks ((Tick/Count))
board.cache_hierarchy.clusters.l1dcache.demandAvgMissLatency::total  5711.170547                       # average overall miss latency in ticks ((Tick/Count))
board.cache_hierarchy.clusters.l1dcache.overallAvgMissLatency::processor.cores.core.data  5711.170547                       # average overall miss latency ((Tick/Count))
board.cache_hierarchy.clusters.l1dcache.overallAvgMissLatency::total  5711.170547                       # average overall miss latency ((Tick/Count))
board.cache_hierarchy.clusters.l1dcache.blockedCycles::no_mshrs            0                       # number of cycles access was blocked (Cycle)
board.cache_hierarchy.clusters.l1dcache.blockedCycles::no_targets          189                       # number of cycles access was blocked (Cycle)
board.cache_hierarchy.clusters.l1dcache.blockedCauses::no_mshrs            0                       # number of times access was blocked (Count)
board.cache_hierarchy.clusters.l1dcache.blockedCauses::no_targets            2                       # number of times access was blocked (Count)
board.cache_hierarchy.clusters.l1dcache.avgBlocked::no_mshrs          nan                       # average number of cycles each access was blocked ((Cycle/Count))
board.cache_hierarchy.clusters.l1dcache.avgBlocked::no_targets    94.500000                       # average number of cycles each access was blocked ((Cycle/Count))
board.cache_hierarchy.clusters.l1dcache.writebacks::writebacks        65523                       # number of writebacks (Count)
board.cache_hierarchy.clusters.l1dcache.writebacks::total        65523                       # number of writebacks (Count)
board.cache_hierarchy.clusters.l1dcache.demandMshrHits::processor.cores.core.data          885                       # number of demand (read+write) MSHR hits (Count)
board.cache_hierarchy.clusters.l1dcache.demandMshrHits::total          885                       # number of demand (read+write) MSHR hits (Count)
board.cache_hierarchy.clusters.l1dcache.overallMshrHits::processor.cores.core.data          885                       # number of overall MSHR hits (Count)
board.cache_hierarchy.clusters.l1dcache.overallMshrHits::total          885                       # number of overall MSHR hits (Count)
board.cache_hierarchy.clusters.l1dcache.demandMshrMisses::processor.cores.core.data        63285                       # number of demand (read+write) MSHR misses (Count)
board.cache_hierarchy.clusters.l1dcache.demandMshrMisses::total        63285                       # number of demand (read+write) MSHR misses (Count)
board.cache_hierarchy.clusters.l1dcache.overallMshrMisses::cache_hierarchy.clusters.l1dcache.prefetcher         3481                       # number of overall MSHR misses (Count)
board.cache_hierarchy.clusters.l1dcache.overallMshrMisses::processor.cores.core.data        63285                       # number of overall MSHR misses (Count)
board.cache_hierarchy.clusters.l1dcache.overallMshrMisses::total        66766                       # number of overall MSHR misses (Count)
board.cache_hierarchy.clusters.l1dcache.demandMshrMissLatency::processor.cores.core.data    293536836                       # number of demand (read+write) MSHR miss ticks (Tick)
board.cache_hierarchy.clusters.l1dcache.demandMshrMissLatency::total    293536836                       # number of demand (read+write) MSHR miss ticks (Tick)
board.cache_hierarchy.clusters.l1dcache.overallMshrMissLatency::cache_hierarchy.clusters.l1dcache.prefetcher     37281359                       # number of overall MSHR miss ticks (Tick)
board.cache_hierarchy.clusters.l1dcache.overallMshrMissLatency::processor.cores.core.data    293536836                       # number of overall MSHR miss ticks (Tick)
board.cache_hierarchy.clusters.l1dcache.overallMshrMissLatency::total    330818195                       # number of overall MSHR miss ticks (Tick)
board.cache_hierarchy.clusters.l1dcache.demandMshrMissRate::processor.cores.core.data     0.005071                       # mshr miss ratio for demand accesses (Ratio)
board.cache_hierarchy.clusters.l1dcache.demandMshrMissRate::total     0.005071                       # mshr miss ratio for demand accesses (Ratio)
board.cache_hierarchy.clusters.l1dcache.overallMshrMissRate::cache_hierarchy.clusters.l1dcache.prefetcher          inf                       # mshr miss ratio for overall accesses (Ratio)
board.cache_hierarchy.clusters.l1dcache.overallMshrMissRate::processor.cores.core.data     0.005071                       # mshr miss ratio for overall accesses (Ratio)
board.cache_hierarchy.clusters.l1dcache.overallMshrMissRate::total     0.005350                       # mshr miss ratio for overall accesses (Ratio)
board.cache_hierarchy.clusters.l1dcache.demandAvgMshrMissLatency::processor.cores.core.data  4638.331927                       # average overall mshr miss latency ((Tick/Count))
board.cache_hierarchy.clusters.l1dcache.demandAvgMshrMissLatency::total  4638.331927                       # average overall mshr miss latency ((Tick/Count))
board.cache_hierarchy.clusters.l1dcache.overallAvgMshrMissLatency::cache_hierarchy.clusters.l1dcache.prefetcher 10709.956622                       # average overall mshr miss latency ((Tick/Count))
board.cache_hierarchy.clusters.l1dcache.overallAvgMshrMissLatency::processor.cores.core.data  4638.331927                       # average overall mshr miss latency ((Tick/Count))
board.cache_hierarchy.clusters.l1dcache.overallAvgMshrMissLatency::total  4954.890139                       # average overall mshr miss latency ((Tick/Count))
board.cache_hierarchy.clusters.l1dcache.replacements        66246                       # number of replacements (Count)
board.cache_hierarchy.clusters.l1dcache.HardPFReq.mshrMisses::cache_hierarchy.clusters.l1dcache.prefetcher         3481                       # number of HardPFReq MSHR misses (Count)
board.cache_hierarchy.clusters.l1dcache.HardPFReq.mshrMisses::total         3481                       # number of HardPFReq MSHR misses (Count)
board.cache_hierarchy.clusters.l1dcache.HardPFReq.mshrMissLatency::cache_hierarchy.clusters.l1dcache.prefetcher     37281359                       # number of HardPFReq MSHR miss ticks (Tick)
board.cache_hierarchy.clusters.l1dcache.HardPFReq.mshrMissLatency::total     37281359                       # number of HardPFReq MSHR miss ticks (Tick)
board.cache_hierarchy.clusters.l1dcache.HardPFReq.mshrMissRate::cache_hierarchy.clusters.l1dcache.prefetcher          inf                       # mshr miss rate for HardPFReq accesses (Ratio)
board.cache_hierarchy.clusters.l1dcache.HardPFReq.mshrMissRate::total          inf                       # mshr miss rate for HardPFReq accesses (Ratio)
board.cache_hierarchy.clusters.l1dcache.HardPFReq.avgMshrMissLatency::cache_hierarchy.clusters.l1dcache.prefetcher 10709.956622                       # average HardPFReq mshr miss latency ((Tick/Count))
board.cache_hierarchy.clusters.l1dcache.HardPFReq.avgMshrMissLatency::total 10709.956622                       # average HardPFReq mshr miss latency ((Tick/Count))
board.cache_hierarchy.clusters.l1dcache.LoadLockedReq.hits::processor.cores.core.data           11                       # number of LoadLockedReq hits (Count)
board.cache_hierarchy.clusters.l1dcache.LoadLockedReq.hits::total           11                       # number of LoadLockedReq hits (Count)
board.cache_hierarchy.clusters.l1dcache.LoadLockedReq.misses::processor.cores.core.data            7                       # number of LoadLockedReq misses (Count)
board.cache_hierarchy.clusters.l1dcache.LoadLockedReq.misses::total            7                       # number of LoadLockedReq misses (Count)
board.cache_hierarchy.clusters.l1dcache.LoadLockedReq.missLatency::processor.cores.core.data       248751                       # number of LoadLockedReq miss ticks (Tick)
board.cache_hierarchy.clusters.l1dcache.LoadLockedReq.missLatency::total       248751                       # number of LoadLockedReq miss ticks (Tick)
board.cache_hierarchy.clusters.l1dcache.LoadLockedReq.accesses::processor.cores.core.data           18                       # number of LoadLockedReq accesses(hits+misses) (Count)
board.cache_hierarchy.clusters.l1dcache.LoadLockedReq.accesses::total           18                       # number of LoadLockedReq accesses(hits+misses) (Count)
board.cache_hierarchy.clusters.l1dcache.LoadLockedReq.missRate::processor.cores.core.data     0.388889                       # miss rate for LoadLockedReq accesses (Ratio)
board.cache_hierarchy.clusters.l1dcache.LoadLockedReq.missRate::total     0.388889                       # miss rate for LoadLockedReq accesses (Ratio)
board.cache_hierarchy.clusters.l1dcache.LoadLockedReq.avgMissLatency::processor.cores.core.data 35535.857143                       # average LoadLockedReq miss latency ((Tick/Count))
board.cache_hierarchy.clusters.l1dcache.LoadLockedReq.avgMissLatency::total 35535.857143                       # average LoadLockedReq miss latency ((Tick/Count))
board.cache_hierarchy.clusters.l1dcache.LoadLockedReq.mshrHits::processor.cores.core.data            5                       # number of LoadLockedReq MSHR hits (Count)
board.cache_hierarchy.clusters.l1dcache.LoadLockedReq.mshrHits::total            5                       # number of LoadLockedReq MSHR hits (Count)
board.cache_hierarchy.clusters.l1dcache.LoadLockedReq.mshrMisses::processor.cores.core.data            2                       # number of LoadLockedReq MSHR misses (Count)
board.cache_hierarchy.clusters.l1dcache.LoadLockedReq.mshrMisses::total            2                       # number of LoadLockedReq MSHR misses (Count)
board.cache_hierarchy.clusters.l1dcache.LoadLockedReq.mshrMissLatency::processor.cores.core.data        71928                       # number of LoadLockedReq MSHR miss ticks (Tick)
board.cache_hierarchy.clusters.l1dcache.LoadLockedReq.mshrMissLatency::total        71928                       # number of LoadLockedReq MSHR miss ticks (Tick)
board.cache_hierarchy.clusters.l1dcache.LoadLockedReq.mshrMissRate::processor.cores.core.data     0.111111                       # mshr miss rate for LoadLockedReq accesses (Ratio)
board.cache_hierarchy.clusters.l1dcache.LoadLockedReq.mshrMissRate::total     0.111111                       # mshr miss rate for LoadLockedReq accesses (Ratio)
board.cache_hierarchy.clusters.l1dcache.LoadLockedReq.avgMshrMissLatency::processor.cores.core.data        35964                       # average LoadLockedReq mshr miss latency ((Tick/Count))
board.cache_hierarchy.clusters.l1dcache.LoadLockedReq.avgMshrMissLatency::total        35964                       # average LoadLockedReq mshr miss latency ((Tick/Count))
board.cache_hierarchy.clusters.l1dcache.ReadReq.hits::processor.cores.core.data     10324955                       # number of ReadReq hits (Count)
board.cache_hierarchy.clusters.l1dcache.ReadReq.hits::total     10324955                       # number of ReadReq hits (Count)
board.cache_hierarchy.clusters.l1dcache.ReadReq.misses::processor.cores.core.data        63165                       # number of ReadReq misses (Count)
board.cache_hierarchy.clusters.l1dcache.ReadReq.misses::total        63165                       # number of ReadReq misses (Count)
board.cache_hierarchy.clusters.l1dcache.ReadReq.missLatency::processor.cores.core.data    317984031                       # number of ReadReq miss ticks (Tick)
board.cache_hierarchy.clusters.l1dcache.ReadReq.missLatency::total    317984031                       # number of ReadReq miss ticks (Tick)
board.cache_hierarchy.clusters.l1dcache.ReadReq.accesses::processor.cores.core.data     10388120                       # number of ReadReq accesses(hits+misses) (Count)
board.cache_hierarchy.clusters.l1dcache.ReadReq.accesses::total     10388120                       # number of ReadReq accesses(hits+misses) (Count)
board.cache_hierarchy.clusters.l1dcache.ReadReq.missRate::processor.cores.core.data     0.006081                       # miss rate for ReadReq accesses (Ratio)
board.cache_hierarchy.clusters.l1dcache.ReadReq.missRate::total     0.006081                       # miss rate for ReadReq accesses (Ratio)
board.cache_hierarchy.clusters.l1dcache.ReadReq.avgMissLatency::processor.cores.core.data  5034.180812                       # average ReadReq miss latency ((Tick/Count))
board.cache_hierarchy.clusters.l1dcache.ReadReq.avgMissLatency::total  5034.180812                       # average ReadReq miss latency ((Tick/Count))
board.cache_hierarchy.clusters.l1dcache.ReadReq.mshrHits::processor.cores.core.data          323                       # number of ReadReq MSHR hits (Count)
board.cache_hierarchy.clusters.l1dcache.ReadReq.mshrHits::total          323                       # number of ReadReq MSHR hits (Count)
board.cache_hierarchy.clusters.l1dcache.ReadReq.mshrMisses::processor.cores.core.data        62842                       # number of ReadReq MSHR misses (Count)
board.cache_hierarchy.clusters.l1dcache.ReadReq.mshrMisses::total        62842                       # number of ReadReq MSHR misses (Count)
board.cache_hierarchy.clusters.l1dcache.ReadReq.mshrMissLatency::processor.cores.core.data    281818566                       # number of ReadReq MSHR miss ticks (Tick)
board.cache_hierarchy.clusters.l1dcache.ReadReq.mshrMissLatency::total    281818566                       # number of ReadReq MSHR miss ticks (Tick)
board.cache_hierarchy.clusters.l1dcache.ReadReq.mshrMissRate::processor.cores.core.data     0.006049                       # mshr miss rate for ReadReq accesses (Ratio)
board.cache_hierarchy.clusters.l1dcache.ReadReq.mshrMissRate::total     0.006049                       # mshr miss rate for ReadReq accesses (Ratio)
board.cache_hierarchy.clusters.l1dcache.ReadReq.avgMshrMissLatency::processor.cores.core.data  4484.557557                       # average ReadReq mshr miss latency ((Tick/Count))
board.cache_hierarchy.clusters.l1dcache.ReadReq.avgMshrMissLatency::total  4484.557557                       # average ReadReq mshr miss latency ((Tick/Count))
board.cache_hierarchy.clusters.l1dcache.StoreCondReq.hits::processor.cores.core.data           11                       # number of StoreCondReq hits (Count)
board.cache_hierarchy.clusters.l1dcache.StoreCondReq.hits::total           11                       # number of StoreCondReq hits (Count)
board.cache_hierarchy.clusters.l1dcache.StoreCondReq.misses::processor.cores.core.data            3                       # number of StoreCondReq misses (Count)
board.cache_hierarchy.clusters.l1dcache.StoreCondReq.misses::total            3                       # number of StoreCondReq misses (Count)
board.cache_hierarchy.clusters.l1dcache.StoreCondReq.missLatency::processor.cores.core.data        13986                       # number of StoreCondReq miss ticks (Tick)
board.cache_hierarchy.clusters.l1dcache.StoreCondReq.missLatency::total        13986                       # number of StoreCondReq miss ticks (Tick)
board.cache_hierarchy.clusters.l1dcache.StoreCondReq.accesses::processor.cores.core.data           14                       # number of StoreCondReq accesses(hits+misses) (Count)
board.cache_hierarchy.clusters.l1dcache.StoreCondReq.accesses::total           14                       # number of StoreCondReq accesses(hits+misses) (Count)
board.cache_hierarchy.clusters.l1dcache.StoreCondReq.missRate::processor.cores.core.data     0.214286                       # miss rate for StoreCondReq accesses (Ratio)
board.cache_hierarchy.clusters.l1dcache.StoreCondReq.missRate::total     0.214286                       # miss rate for StoreCondReq accesses (Ratio)
board.cache_hierarchy.clusters.l1dcache.StoreCondReq.avgMissLatency::processor.cores.core.data         4662                       # average StoreCondReq miss latency ((Tick/Count))
board.cache_hierarchy.clusters.l1dcache.StoreCondReq.avgMissLatency::total         4662                       # average StoreCondReq miss latency ((Tick/Count))
board.cache_hierarchy.clusters.l1dcache.StoreCondReq.mshrMisses::processor.cores.core.data            3                       # number of StoreCondReq MSHR misses (Count)
board.cache_hierarchy.clusters.l1dcache.StoreCondReq.mshrMisses::total            3                       # number of StoreCondReq MSHR misses (Count)
board.cache_hierarchy.clusters.l1dcache.StoreCondReq.mshrMissLatency::processor.cores.core.data        12987                       # number of StoreCondReq MSHR miss ticks (Tick)
board.cache_hierarchy.clusters.l1dcache.StoreCondReq.mshrMissLatency::total        12987                       # number of StoreCondReq MSHR miss ticks (Tick)
board.cache_hierarchy.clusters.l1dcache.StoreCondReq.mshrMissRate::processor.cores.core.data     0.214286                       # mshr miss rate for StoreCondReq accesses (Ratio)
board.cache_hierarchy.clusters.l1dcache.StoreCondReq.mshrMissRate::total     0.214286                       # mshr miss rate for StoreCondReq accesses (Ratio)
board.cache_hierarchy.clusters.l1dcache.StoreCondReq.avgMshrMissLatency::processor.cores.core.data         4329                       # average StoreCondReq mshr miss latency ((Tick/Count))
board.cache_hierarchy.clusters.l1dcache.StoreCondReq.avgMshrMissLatency::total         4329                       # average StoreCondReq mshr miss latency ((Tick/Count))
board.cache_hierarchy.clusters.l1dcache.SwapReq.hits::processor.cores.core.data           25                       # number of SwapReq hits (Count)
board.cache_hierarchy.clusters.l1dcache.SwapReq.hits::total           25                       # number of SwapReq hits (Count)
board.cache_hierarchy.clusters.l1dcache.SwapReq.accesses::processor.cores.core.data           25                       # number of SwapReq accesses(hits+misses) (Count)
board.cache_hierarchy.clusters.l1dcache.SwapReq.accesses::total           25                       # number of SwapReq accesses(hits+misses) (Count)
board.cache_hierarchy.clusters.l1dcache.WriteReq.hits::processor.cores.core.data      2091212                       # number of WriteReq hits (Count)
board.cache_hierarchy.clusters.l1dcache.WriteReq.hits::total      2091212                       # number of WriteReq hits (Count)
board.cache_hierarchy.clusters.l1dcache.WriteReq.misses::processor.cores.core.data         1005                       # number of WriteReq misses (Count)
board.cache_hierarchy.clusters.l1dcache.WriteReq.misses::total         1005                       # number of WriteReq misses (Count)
board.cache_hierarchy.clusters.l1dcache.WriteReq.missLatency::processor.cores.core.data     48501783                       # number of WriteReq miss ticks (Tick)
board.cache_hierarchy.clusters.l1dcache.WriteReq.missLatency::total     48501783                       # number of WriteReq miss ticks (Tick)
board.cache_hierarchy.clusters.l1dcache.WriteReq.accesses::processor.cores.core.data      2092217                       # number of WriteReq accesses(hits+misses) (Count)
board.cache_hierarchy.clusters.l1dcache.WriteReq.accesses::total      2092217                       # number of WriteReq accesses(hits+misses) (Count)
board.cache_hierarchy.clusters.l1dcache.WriteReq.missRate::processor.cores.core.data     0.000480                       # miss rate for WriteReq accesses (Ratio)
board.cache_hierarchy.clusters.l1dcache.WriteReq.missRate::total     0.000480                       # miss rate for WriteReq accesses (Ratio)
board.cache_hierarchy.clusters.l1dcache.WriteReq.avgMissLatency::processor.cores.core.data 48260.480597                       # average WriteReq miss latency ((Tick/Count))
board.cache_hierarchy.clusters.l1dcache.WriteReq.avgMissLatency::total 48260.480597                       # average WriteReq miss latency ((Tick/Count))
board.cache_hierarchy.clusters.l1dcache.WriteReq.mshrHits::processor.cores.core.data          562                       # number of WriteReq MSHR hits (Count)
board.cache_hierarchy.clusters.l1dcache.WriteReq.mshrHits::total          562                       # number of WriteReq MSHR hits (Count)
board.cache_hierarchy.clusters.l1dcache.WriteReq.mshrMisses::processor.cores.core.data          443                       # number of WriteReq MSHR misses (Count)
board.cache_hierarchy.clusters.l1dcache.WriteReq.mshrMisses::total          443                       # number of WriteReq MSHR misses (Count)
board.cache_hierarchy.clusters.l1dcache.WriteReq.mshrMissLatency::processor.cores.core.data     11718270                       # number of WriteReq MSHR miss ticks (Tick)
board.cache_hierarchy.clusters.l1dcache.WriteReq.mshrMissLatency::total     11718270                       # number of WriteReq MSHR miss ticks (Tick)
board.cache_hierarchy.clusters.l1dcache.WriteReq.mshrMissRate::processor.cores.core.data     0.000212                       # mshr miss rate for WriteReq accesses (Ratio)
board.cache_hierarchy.clusters.l1dcache.WriteReq.mshrMissRate::total     0.000212                       # mshr miss rate for WriteReq accesses (Ratio)
board.cache_hierarchy.clusters.l1dcache.WriteReq.avgMshrMissLatency::processor.cores.core.data 26452.076749                       # average WriteReq mshr miss latency ((Tick/Count))
board.cache_hierarchy.clusters.l1dcache.WriteReq.avgMshrMissLatency::total 26452.076749                       # average WriteReq mshr miss latency ((Tick/Count))
board.cache_hierarchy.clusters.l1dcache.power_state.pwrStateResidencyTicks::UNDEFINED   7152389118                       # Cumulative time (in ticks) in various power states (Tick)
board.cache_hierarchy.clusters.l1dcache.prefetcher.demandMshrMisses        63285                       # demands not covered by prefetchs (Count)
board.cache_hierarchy.clusters.l1dcache.prefetcher.pfIssued        13131                       # number of hwpf issued (Count)
board.cache_hierarchy.clusters.l1dcache.prefetcher.pfUnused          710                       # number of HardPF blocks evicted w/o reference (Count)
board.cache_hierarchy.clusters.l1dcache.prefetcher.pfUseful         2734                       # number of useful prefetch (Count)
board.cache_hierarchy.clusters.l1dcache.prefetcher.pfUsefulButMiss            0                       # number of hit on prefetch but cache block is not in an usable state (Count)
board.cache_hierarchy.clusters.l1dcache.prefetcher.accuracy     0.208210                       # accuracy of the prefetcher (Count)
board.cache_hierarchy.clusters.l1dcache.prefetcher.coverage     0.041412                       # coverage brought by this prefetcher (Count)
board.cache_hierarchy.clusters.l1dcache.prefetcher.pfHitInCache         8650                       # number of prefetches hitting in cache (Count)
board.cache_hierarchy.clusters.l1dcache.prefetcher.pfHitInMSHR         1000                       # number of prefetches hitting in a MSHR (Count)
board.cache_hierarchy.clusters.l1dcache.prefetcher.pfHitInWB            0                       # number of prefetches hit in the Write Buffer (Count)
board.cache_hierarchy.clusters.l1dcache.prefetcher.pfLate         9650                       # number of late prefetches (hitting in cache, MSHR or WB) (Count)
board.cache_hierarchy.clusters.l1dcache.prefetcher.pfIdentified        13601                       # number of prefetch candidates identified (Count)
board.cache_hierarchy.clusters.l1dcache.prefetcher.pfBufferHit          356                       # number of redundant prefetches already in prefetch queue (Count)
board.cache_hierarchy.clusters.l1dcache.prefetcher.pfInCache            0                       # number of redundant prefetches already in cache/mshr dropped (Count)
board.cache_hierarchy.clusters.l1dcache.prefetcher.pfRemovedDemand            7                       # number of prefetches dropped due to a demand for the same address (Count)
board.cache_hierarchy.clusters.l1dcache.prefetcher.pfRemovedFull            0                       # number of prefetches dropped due to prefetch queue size (Count)
board.cache_hierarchy.clusters.l1dcache.prefetcher.pfSpanPage          887                       # number of prefetches that crossed the page (Count)
board.cache_hierarchy.clusters.l1dcache.prefetcher.pfUsefulSpanPage          536                       # number of prefetches that is useful and crossed the page (Count)
board.cache_hierarchy.clusters.l1dcache.prefetcher.power_state.pwrStateResidencyTicks::UNDEFINED   7152389118                       # Cumulative time (in ticks) in various power states (Tick)
board.cache_hierarchy.clusters.l1dcache.tags.tagsInUse   510.941807                       # Average ticks per tags in use ((Tick/Count))
board.cache_hierarchy.clusters.l1dcache.tags.totalRefs     12482996                       # Total number of references to valid blocks. (Count)
board.cache_hierarchy.clusters.l1dcache.tags.sampledRefs        66758                       # Sample count of references to valid blocks. (Count)
board.cache_hierarchy.clusters.l1dcache.tags.avgRefs   186.988765                       # Average number of references to valid blocks. ((Count/Count))
board.cache_hierarchy.clusters.l1dcache.tags.warmupTick       152847                       # The tick when the warmup percentage was hit. (Tick)
board.cache_hierarchy.clusters.l1dcache.tags.occupancies::cache_hierarchy.clusters.l1dcache.prefetcher    25.023517                       # Average occupied blocks per tick, per requestor ((Count/Tick))
board.cache_hierarchy.clusters.l1dcache.tags.occupancies::processor.cores.core.data   485.918290                       # Average occupied blocks per tick, per requestor ((Count/Tick))
board.cache_hierarchy.clusters.l1dcache.tags.avgOccs::cache_hierarchy.clusters.l1dcache.prefetcher     0.048874                       # Average percentage of cache occupancy ((Ratio/Tick))
board.cache_hierarchy.clusters.l1dcache.tags.avgOccs::processor.cores.core.data     0.949059                       # Average percentage of cache occupancy ((Ratio/Tick))
board.cache_hierarchy.clusters.l1dcache.tags.avgOccs::total     0.997933                       # Average percentage of cache occupancy ((Ratio/Tick))
board.cache_hierarchy.clusters.l1dcache.tags.occupanciesTaskId::1022          426                       # Occupied blocks per task id (Count)
board.cache_hierarchy.clusters.l1dcache.tags.occupanciesTaskId::1024           86                       # Occupied blocks per task id (Count)
board.cache_hierarchy.clusters.l1dcache.tags.ageTaskId_1022::0           72                       # Occupied blocks per task id, per block age (Count)
board.cache_hierarchy.clusters.l1dcache.tags.ageTaskId_1022::1          354                       # Occupied blocks per task id, per block age (Count)
board.cache_hierarchy.clusters.l1dcache.tags.ageTaskId_1024::0           77                       # Occupied blocks per task id, per block age (Count)
board.cache_hierarchy.clusters.l1dcache.tags.ageTaskId_1024::1            7                       # Occupied blocks per task id, per block age (Count)
board.cache_hierarchy.clusters.l1dcache.tags.ageTaskId_1024::3            2                       # Occupied blocks per task id, per block age (Count)
board.cache_hierarchy.clusters.l1dcache.tags.ratioOccsTaskId::1022     0.832031                       # Ratio of occupied blocks and all blocks, per task id (Ratio)
board.cache_hierarchy.clusters.l1dcache.tags.ratioOccsTaskId::1024     0.167969                       # Ratio of occupied blocks and all blocks, per task id (Ratio)
board.cache_hierarchy.clusters.l1dcache.tags.tagAccesses     99909910                       # Number of tag accesses (Count)
board.cache_hierarchy.clusters.l1dcache.tags.dataAccesses     99909910                       # Number of data accesses (Count)
board.cache_hierarchy.clusters.l1dcache.tags.power_state.pwrStateResidencyTicks::UNDEFINED   7152389118                       # Cumulative time (in ticks) in various power states (Tick)
board.cache_hierarchy.clusters.l1icache.demandHits::processor.cores.core.inst      2188045                       # number of demand (read+write) hits (Count)
board.cache_hierarchy.clusters.l1icache.demandHits::total      2188045                       # number of demand (read+write) hits (Count)
board.cache_hierarchy.clusters.l1icache.overallHits::processor.cores.core.inst      2188045                       # number of overall hits (Count)
board.cache_hierarchy.clusters.l1icache.overallHits::total      2188045                       # number of overall hits (Count)
board.cache_hierarchy.clusters.l1icache.demandMisses::processor.cores.core.inst          634                       # number of demand (read+write) misses (Count)
board.cache_hierarchy.clusters.l1icache.demandMisses::total          634                       # number of demand (read+write) misses (Count)
board.cache_hierarchy.clusters.l1icache.overallMisses::processor.cores.core.inst          634                       # number of overall misses (Count)
board.cache_hierarchy.clusters.l1icache.overallMisses::total          634                       # number of overall misses (Count)
board.cache_hierarchy.clusters.l1icache.demandMissLatency::processor.cores.core.inst     39437856                       # number of demand (read+write) miss ticks (Tick)
board.cache_hierarchy.clusters.l1icache.demandMissLatency::total     39437856                       # number of demand (read+write) miss ticks (Tick)
board.cache_hierarchy.clusters.l1icache.overallMissLatency::processor.cores.core.inst     39437856                       # number of overall miss ticks (Tick)
board.cache_hierarchy.clusters.l1icache.overallMissLatency::total     39437856                       # number of overall miss ticks (Tick)
board.cache_hierarchy.clusters.l1icache.demandAccesses::processor.cores.core.inst      2188679                       # number of demand (read+write) accesses (Count)
board.cache_hierarchy.clusters.l1icache.demandAccesses::total      2188679                       # number of demand (read+write) accesses (Count)
board.cache_hierarchy.clusters.l1icache.overallAccesses::processor.cores.core.inst      2188679                       # number of overall (read+write) accesses (Count)
board.cache_hierarchy.clusters.l1icache.overallAccesses::total      2188679                       # number of overall (read+write) accesses (Count)
board.cache_hierarchy.clusters.l1icache.demandMissRate::processor.cores.core.inst     0.000290                       # miss rate for demand accesses (Ratio)
board.cache_hierarchy.clusters.l1icache.demandMissRate::total     0.000290                       # miss rate for demand accesses (Ratio)
board.cache_hierarchy.clusters.l1icache.overallMissRate::processor.cores.core.inst     0.000290                       # miss rate for overall accesses (Ratio)
board.cache_hierarchy.clusters.l1icache.overallMissRate::total     0.000290                       # miss rate for overall accesses (Ratio)
board.cache_hierarchy.clusters.l1icache.demandAvgMissLatency::processor.cores.core.inst 62204.820189                       # average overall miss latency in ticks ((Tick/Count))
board.cache_hierarchy.clusters.l1icache.demandAvgMissLatency::total 62204.820189                       # average overall miss latency in ticks ((Tick/Count))
board.cache_hierarchy.clusters.l1icache.overallAvgMissLatency::processor.cores.core.inst 62204.820189                       # average overall miss latency ((Tick/Count))
board.cache_hierarchy.clusters.l1icache.overallAvgMissLatency::total 62204.820189                       # average overall miss latency ((Tick/Count))
board.cache_hierarchy.clusters.l1icache.blockedCycles::no_mshrs            0                       # number of cycles access was blocked (Cycle)
board.cache_hierarchy.clusters.l1icache.blockedCycles::no_targets            0                       # number of cycles access was blocked (Cycle)
board.cache_hierarchy.clusters.l1icache.blockedCauses::no_mshrs            0                       # number of times access was blocked (Count)
board.cache_hierarchy.clusters.l1icache.blockedCauses::no_targets            0                       # number of times access was blocked (Count)
board.cache_hierarchy.clusters.l1icache.avgBlocked::no_mshrs          nan                       # average number of cycles each access was blocked ((Cycle/Count))
board.cache_hierarchy.clusters.l1icache.avgBlocked::no_targets          nan                       # average number of cycles each access was blocked ((Cycle/Count))
board.cache_hierarchy.clusters.l1icache.writebacks::writebacks           16                       # number of writebacks (Count)
board.cache_hierarchy.clusters.l1icache.writebacks::total           16                       # number of writebacks (Count)
board.cache_hierarchy.clusters.l1icache.demandMshrHits::processor.cores.core.inst          218                       # number of demand (read+write) MSHR hits (Count)
board.cache_hierarchy.clusters.l1icache.demandMshrHits::total          218                       # number of demand (read+write) MSHR hits (Count)
board.cache_hierarchy.clusters.l1icache.overallMshrHits::processor.cores.core.inst          218                       # number of overall MSHR hits (Count)
board.cache_hierarchy.clusters.l1icache.overallMshrHits::total          218                       # number of overall MSHR hits (Count)
board.cache_hierarchy.clusters.l1icache.demandMshrMisses::processor.cores.core.inst          416                       # number of demand (read+write) MSHR misses (Count)
board.cache_hierarchy.clusters.l1icache.demandMshrMisses::total          416                       # number of demand (read+write) MSHR misses (Count)
board.cache_hierarchy.clusters.l1icache.overallMshrMisses::processor.cores.core.inst          416                       # number of overall MSHR misses (Count)
board.cache_hierarchy.clusters.l1icache.overallMshrMisses::total          416                       # number of overall MSHR misses (Count)
board.cache_hierarchy.clusters.l1icache.demandMshrMissLatency::processor.cores.core.inst     28559412                       # number of demand (read+write) MSHR miss ticks (Tick)
board.cache_hierarchy.clusters.l1icache.demandMshrMissLatency::total     28559412                       # number of demand (read+write) MSHR miss ticks (Tick)
board.cache_hierarchy.clusters.l1icache.overallMshrMissLatency::processor.cores.core.inst     28559412                       # number of overall MSHR miss ticks (Tick)
board.cache_hierarchy.clusters.l1icache.overallMshrMissLatency::total     28559412                       # number of overall MSHR miss ticks (Tick)
board.cache_hierarchy.clusters.l1icache.demandMshrMissRate::processor.cores.core.inst     0.000190                       # mshr miss ratio for demand accesses (Ratio)
board.cache_hierarchy.clusters.l1icache.demandMshrMissRate::total     0.000190                       # mshr miss ratio for demand accesses (Ratio)
board.cache_hierarchy.clusters.l1icache.overallMshrMissRate::processor.cores.core.inst     0.000190                       # mshr miss ratio for overall accesses (Ratio)
board.cache_hierarchy.clusters.l1icache.overallMshrMissRate::total     0.000190                       # mshr miss ratio for overall accesses (Ratio)
board.cache_hierarchy.clusters.l1icache.demandAvgMshrMissLatency::processor.cores.core.inst 68652.432692                       # average overall mshr miss latency ((Tick/Count))
board.cache_hierarchy.clusters.l1icache.demandAvgMshrMissLatency::total 68652.432692                       # average overall mshr miss latency ((Tick/Count))
board.cache_hierarchy.clusters.l1icache.overallAvgMshrMissLatency::processor.cores.core.inst 68652.432692                       # average overall mshr miss latency ((Tick/Count))
board.cache_hierarchy.clusters.l1icache.overallAvgMshrMissLatency::total 68652.432692                       # average overall mshr miss latency ((Tick/Count))
board.cache_hierarchy.clusters.l1icache.replacements           16                       # number of replacements (Count)
board.cache_hierarchy.clusters.l1icache.ReadReq.hits::processor.cores.core.inst      2188045                       # number of ReadReq hits (Count)
board.cache_hierarchy.clusters.l1icache.ReadReq.hits::total      2188045                       # number of ReadReq hits (Count)
board.cache_hierarchy.clusters.l1icache.ReadReq.misses::processor.cores.core.inst          634                       # number of ReadReq misses (Count)
board.cache_hierarchy.clusters.l1icache.ReadReq.misses::total          634                       # number of ReadReq misses (Count)
board.cache_hierarchy.clusters.l1icache.ReadReq.missLatency::processor.cores.core.inst     39437856                       # number of ReadReq miss ticks (Tick)
board.cache_hierarchy.clusters.l1icache.ReadReq.missLatency::total     39437856                       # number of ReadReq miss ticks (Tick)
board.cache_hierarchy.clusters.l1icache.ReadReq.accesses::processor.cores.core.inst      2188679                       # number of ReadReq accesses(hits+misses) (Count)
board.cache_hierarchy.clusters.l1icache.ReadReq.accesses::total      2188679                       # number of ReadReq accesses(hits+misses) (Count)
board.cache_hierarchy.clusters.l1icache.ReadReq.missRate::processor.cores.core.inst     0.000290                       # miss rate for ReadReq accesses (Ratio)
board.cache_hierarchy.clusters.l1icache.ReadReq.missRate::total     0.000290                       # miss rate for ReadReq accesses (Ratio)
board.cache_hierarchy.clusters.l1icache.ReadReq.avgMissLatency::processor.cores.core.inst 62204.820189                       # average ReadReq miss latency ((Tick/Count))
board.cache_hierarchy.clusters.l1icache.ReadReq.avgMissLatency::total 62204.820189                       # average ReadReq miss latency ((Tick/Count))
board.cache_hierarchy.clusters.l1icache.ReadReq.mshrHits::processor.cores.core.inst          218                       # number of ReadReq MSHR hits (Count)
board.cache_hierarchy.clusters.l1icache.ReadReq.mshrHits::total          218                       # number of ReadReq MSHR hits (Count)
board.cache_hierarchy.clusters.l1icache.ReadReq.mshrMisses::processor.cores.core.inst          416                       # number of ReadReq MSHR misses (Count)
board.cache_hierarchy.clusters.l1icache.ReadReq.mshrMisses::total          416                       # number of ReadReq MSHR misses (Count)
board.cache_hierarchy.clusters.l1icache.ReadReq.mshrMissLatency::processor.cores.core.inst     28559412                       # number of ReadReq MSHR miss ticks (Tick)
board.cache_hierarchy.clusters.l1icache.ReadReq.mshrMissLatency::total     28559412                       # number of ReadReq MSHR miss ticks (Tick)
board.cache_hierarchy.clusters.l1icache.ReadReq.mshrMissRate::processor.cores.core.inst     0.000190                       # mshr miss rate for ReadReq accesses (Ratio)
board.cache_hierarchy.clusters.l1icache.ReadReq.mshrMissRate::total     0.000190                       # mshr miss rate for ReadReq accesses (Ratio)
board.cache_hierarchy.clusters.l1icache.ReadReq.avgMshrMissLatency::processor.cores.core.inst 68652.432692                       # average ReadReq mshr miss latency ((Tick/Count))
board.cache_hierarchy.clusters.l1icache.ReadReq.avgMshrMissLatency::total 68652.432692                       # average ReadReq mshr miss latency ((Tick/Count))
board.cache_hierarchy.clusters.l1icache.power_state.pwrStateResidencyTicks::UNDEFINED   7152389118                       # Cumulative time (in ticks) in various power states (Tick)
board.cache_hierarchy.clusters.l1icache.prefetcher.demandMshrMisses          416                       # demands not covered by prefetchs (Count)
board.cache_hierarchy.clusters.l1icache.prefetcher.pfIssued            0                       # number of hwpf issued (Count)
board.cache_hierarchy.clusters.l1icache.prefetcher.pfUseful            0                       # number of useful prefetch (Count)
board.cache_hierarchy.clusters.l1icache.prefetcher.pfUsefulButMiss            0                       # number of hit on prefetch but cache block is not in an usable state (Count)
board.cache_hierarchy.clusters.l1icache.prefetcher.accuracy          nan                       # accuracy of the prefetcher (Count)
board.cache_hierarchy.clusters.l1icache.prefetcher.coverage            0                       # coverage brought by this prefetcher (Count)
board.cache_hierarchy.clusters.l1icache.prefetcher.pfHitInCache            0                       # number of prefetches hitting in cache (Count)
board.cache_hierarchy.clusters.l1icache.prefetcher.pfHitInMSHR            0                       # number of prefetches hitting in a MSHR (Count)
board.cache_hierarchy.clusters.l1icache.prefetcher.pfHitInWB            0                       # number of prefetches hit in the Write Buffer (Count)
board.cache_hierarchy.clusters.l1icache.prefetcher.pfLate            0                       # number of late prefetches (hitting in cache, MSHR or WB) (Count)
board.cache_hierarchy.clusters.l1icache.prefetcher.pfIdentified            0                       # number of prefetch candidates identified (Count)
board.cache_hierarchy.clusters.l1icache.prefetcher.pfBufferHit            0                       # number of redundant prefetches already in prefetch queue (Count)
board.cache_hierarchy.clusters.l1icache.prefetcher.pfInCache            0                       # number of redundant prefetches already in cache/mshr dropped (Count)
board.cache_hierarchy.clusters.l1icache.prefetcher.pfRemovedDemand            0                       # number of prefetches dropped due to a demand for the same address (Count)
board.cache_hierarchy.clusters.l1icache.prefetcher.pfRemovedFull            0                       # number of prefetches dropped due to prefetch queue size (Count)
board.cache_hierarchy.clusters.l1icache.prefetcher.pfSpanPage            0                       # number of prefetches that crossed the page (Count)
board.cache_hierarchy.clusters.l1icache.prefetcher.pfUsefulSpanPage            0                       # number of prefetches that is useful and crossed the page (Count)
board.cache_hierarchy.clusters.l1icache.prefetcher.power_state.pwrStateResidencyTicks::UNDEFINED   7152389118                       # Cumulative time (in ticks) in various power states (Tick)
board.cache_hierarchy.clusters.l1icache.tags.tagsInUse   297.729853                       # Average ticks per tags in use ((Tick/Count))
board.cache_hierarchy.clusters.l1icache.tags.totalRefs      2188459                       # Total number of references to valid blocks. (Count)
board.cache_hierarchy.clusters.l1icache.tags.sampledRefs          414                       # Sample count of references to valid blocks. (Count)
board.cache_hierarchy.clusters.l1icache.tags.avgRefs  5286.132850                       # Average number of references to valid blocks. ((Count/Count))
board.cache_hierarchy.clusters.l1icache.tags.warmupTick        74592                       # The tick when the warmup percentage was hit. (Tick)
board.cache_hierarchy.clusters.l1icache.tags.occupancies::processor.cores.core.inst   297.729853                       # Average occupied blocks per tick, per requestor ((Count/Tick))
board.cache_hierarchy.clusters.l1icache.tags.avgOccs::processor.cores.core.inst     0.581504                       # Average percentage of cache occupancy ((Ratio/Tick))
board.cache_hierarchy.clusters.l1icache.tags.avgOccs::total     0.581504                       # Average percentage of cache occupancy ((Ratio/Tick))
board.cache_hierarchy.clusters.l1icache.tags.occupanciesTaskId::1024          398                       # Occupied blocks per task id (Count)
board.cache_hierarchy.clusters.l1icache.tags.ageTaskId_1024::0          108                       # Occupied blocks per task id, per block age (Count)
board.cache_hierarchy.clusters.l1icache.tags.ageTaskId_1024::1            6                       # Occupied blocks per task id, per block age (Count)
board.cache_hierarchy.clusters.l1icache.tags.ageTaskId_1024::3          284                       # Occupied blocks per task id, per block age (Count)
board.cache_hierarchy.clusters.l1icache.tags.ratioOccsTaskId::1024     0.777344                       # Ratio of occupied blocks and all blocks, per task id (Ratio)
board.cache_hierarchy.clusters.l1icache.tags.tagAccesses     17509846                       # Number of tag accesses (Count)
board.cache_hierarchy.clusters.l1icache.tags.dataAccesses     17509846                       # Number of data accesses (Count)
board.cache_hierarchy.clusters.l1icache.tags.power_state.pwrStateResidencyTicks::UNDEFINED   7152389118                       # Cumulative time (in ticks) in various power states (Tick)
board.cache_hierarchy.clusters.l2_5_bus.transDist::ReadResp         3973                       # Transaction distribution (Count)
board.cache_hierarchy.clusters.l2_5_bus.transDist::WritebackDirty         2572                       # Transaction distribution (Count)
board.cache_hierarchy.clusters.l2_5_bus.transDist::CleanEvict          715                       # Transaction distribution (Count)
board.cache_hierarchy.clusters.l2_5_bus.transDist::HardPFReq         2043                       # Transaction distribution (Count)
board.cache_hierarchy.clusters.l2_5_bus.transDist::ReadExReq          128                       # Transaction distribution (Count)
board.cache_hierarchy.clusters.l2_5_bus.transDist::ReadExResp          128                       # Transaction distribution (Count)
board.cache_hierarchy.clusters.l2_5_bus.transDist::ReadSharedReq         3976                       # Transaction distribution (Count)
board.cache_hierarchy.clusters.l2_5_bus.transDist::InvalidateReq            1                       # Transaction distribution (Count)
board.cache_hierarchy.clusters.l2_5_bus.transDist::InvalidateResp            1                       # Transaction distribution (Count)
board.cache_hierarchy.clusters.l2_5_bus.pktCount_board.cache_hierarchy.clusters.l2cache.mem_side_port::board.cache_hierarchy.clusters.l2_5_cache.cpu_side_port        10948                       # Packet count per connected requestor and responder (Count)
board.cache_hierarchy.clusters.l2_5_bus.pktSize_board.cache_hierarchy.clusters.l2cache.mem_side_port::board.cache_hierarchy.clusters.l2_5_cache.cpu_side_port       427072                       # Cumulative packet size per connected requestor and responder (Byte)
board.cache_hierarchy.clusters.l2_5_bus.snoops         2589                       # Total snoops (Count)
board.cache_hierarchy.clusters.l2_5_bus.snoopTraffic            0                       # Total snoop traffic (Byte)
board.cache_hierarchy.clusters.l2_5_bus.snoopFanout::samples         6698                       # Request fanout histogram (Count)
board.cache_hierarchy.clusters.l2_5_bus.snoopFanout::mean     0.048821                       # Request fanout histogram (Count)
board.cache_hierarchy.clusters.l2_5_bus.snoopFanout::stdev     0.215509                       # Request fanout histogram (Count)
board.cache_hierarchy.clusters.l2_5_bus.snoopFanout::underflows            0      0.00%      0.00% # Request fanout histogram (Count)
board.cache_hierarchy.clusters.l2_5_bus.snoopFanout::0         6371     95.12%     95.12% # Request fanout histogram (Count)
board.cache_hierarchy.clusters.l2_5_bus.snoopFanout::1          327      4.88%    100.00% # Request fanout histogram (Count)
board.cache_hierarchy.clusters.l2_5_bus.snoopFanout::overflows            0      0.00%    100.00% # Request fanout histogram (Count)
board.cache_hierarchy.clusters.l2_5_bus.snoopFanout::min_value            0                       # Request fanout histogram (Count)
board.cache_hierarchy.clusters.l2_5_bus.snoopFanout::max_value            1                       # Request fanout histogram (Count)
board.cache_hierarchy.clusters.l2_5_bus.snoopFanout::total         6698                       # Request fanout histogram (Count)
board.cache_hierarchy.clusters.l2_5_bus.power_state.pwrStateResidencyTicks::UNDEFINED   7152389118                       # Cumulative time (in ticks) in various power states (Tick)
board.cache_hierarchy.clusters.l2_5_bus.reqLayer0.occupancy      4858834                       # Layer occupancy (ticks) (Tick)
board.cache_hierarchy.clusters.l2_5_bus.reqLayer0.utilization          0.0                       # Layer utilization (Ratio)
board.cache_hierarchy.clusters.l2_5_bus.respLayer0.occupancy      4097232                       # Layer occupancy (ticks) (Tick)
board.cache_hierarchy.clusters.l2_5_bus.respLayer0.utilization          0.0                       # Layer utilization (Ratio)
board.cache_hierarchy.clusters.l2_5_bus.snoop_filter.totRequests         6850                       # Total number of requests made to the snoop filter. (Count)
board.cache_hierarchy.clusters.l2_5_bus.snoop_filter.hitSingleRequests         2741                       # Number of requests hitting in the snoop filter with a single holder of the requested data. (Count)
board.cache_hierarchy.clusters.l2_5_bus.snoop_filter.hitMultiRequests            0                       # Number of requests hitting in the snoop filter with multiple (>1) holders of the requested data. (Count)
board.cache_hierarchy.clusters.l2_5_bus.snoop_filter.totSnoops          327                       # Total number of snoops made to the snoop filter. (Count)
board.cache_hierarchy.clusters.l2_5_bus.snoop_filter.hitSingleSnoops          327                       # Number of snoops hitting in the snoop filter with a single holder of the requested data. (Count)
board.cache_hierarchy.clusters.l2_5_bus.snoop_filter.hitMultiSnoops            0                       # Number of snoops hitting in the snoop filter with multiple (>1) holders of the requested data. (Count)
board.cache_hierarchy.clusters.l2_5_cache.demandHits::cache_hierarchy.clusters.l1dcache.prefetcher           57                       # number of demand (read+write) hits (Count)
board.cache_hierarchy.clusters.l2_5_cache.demandHits::cache_hierarchy.clusters.l2cache.prefetcher         2768                       # number of demand (read+write) hits (Count)
board.cache_hierarchy.clusters.l2_5_cache.demandHits::processor.cores.core.data          281                       # number of demand (read+write) hits (Count)
board.cache_hierarchy.clusters.l2_5_cache.demandHits::total         3106                       # number of demand (read+write) hits (Count)
board.cache_hierarchy.clusters.l2_5_cache.overallHits::cache_hierarchy.clusters.l1dcache.prefetcher           57                       # number of overall hits (Count)
board.cache_hierarchy.clusters.l2_5_cache.overallHits::cache_hierarchy.clusters.l2cache.prefetcher         2768                       # number of overall hits (Count)
board.cache_hierarchy.clusters.l2_5_cache.overallHits::processor.cores.core.data          281                       # number of overall hits (Count)
board.cache_hierarchy.clusters.l2_5_cache.overallHits::total         3106                       # number of overall hits (Count)
board.cache_hierarchy.clusters.l2_5_cache.demandMisses::cache_hierarchy.clusters.l1dcache.prefetcher           85                       # number of demand (read+write) misses (Count)
board.cache_hierarchy.clusters.l2_5_cache.demandMisses::cache_hierarchy.clusters.l2cache.prefetcher          266                       # number of demand (read+write) misses (Count)
board.cache_hierarchy.clusters.l2_5_cache.demandMisses::processor.cores.core.inst          415                       # number of demand (read+write) misses (Count)
board.cache_hierarchy.clusters.l2_5_cache.demandMisses::processor.cores.core.data          232                       # number of demand (read+write) misses (Count)
board.cache_hierarchy.clusters.l2_5_cache.demandMisses::total          998                       # number of demand (read+write) misses (Count)
board.cache_hierarchy.clusters.l2_5_cache.overallMisses::cache_hierarchy.clusters.l1dcache.prefetcher           85                       # number of overall misses (Count)
board.cache_hierarchy.clusters.l2_5_cache.overallMisses::cache_hierarchy.clusters.l2cache.prefetcher          266                       # number of overall misses (Count)
board.cache_hierarchy.clusters.l2_5_cache.overallMisses::processor.cores.core.inst          415                       # number of overall misses (Count)
board.cache_hierarchy.clusters.l2_5_cache.overallMisses::processor.cores.core.data          232                       # number of overall misses (Count)
board.cache_hierarchy.clusters.l2_5_cache.overallMisses::total          998                       # number of overall misses (Count)
board.cache_hierarchy.clusters.l2_5_cache.demandMissLatency::cache_hierarchy.clusters.l1dcache.prefetcher     10982336                       # number of demand (read+write) miss ticks (Tick)
board.cache_hierarchy.clusters.l2_5_cache.demandMissLatency::cache_hierarchy.clusters.l2cache.prefetcher     25715101                       # number of demand (read+write) miss ticks (Tick)
board.cache_hierarchy.clusters.l2_5_cache.demandMissLatency::processor.cores.core.inst     26488152                       # number of demand (read+write) miss ticks (Tick)
board.cache_hierarchy.clusters.l2_5_cache.demandMissLatency::processor.cores.core.data     18060254                       # number of demand (read+write) miss ticks (Tick)
board.cache_hierarchy.clusters.l2_5_cache.demandMissLatency::total     81245843                       # number of demand (read+write) miss ticks (Tick)
board.cache_hierarchy.clusters.l2_5_cache.overallMissLatency::cache_hierarchy.clusters.l1dcache.prefetcher     10982336                       # number of overall miss ticks (Tick)
board.cache_hierarchy.clusters.l2_5_cache.overallMissLatency::cache_hierarchy.clusters.l2cache.prefetcher     25715101                       # number of overall miss ticks (Tick)
board.cache_hierarchy.clusters.l2_5_cache.overallMissLatency::processor.cores.core.inst     26488152                       # number of overall miss ticks (Tick)
board.cache_hierarchy.clusters.l2_5_cache.overallMissLatency::processor.cores.core.data     18060254                       # number of overall miss ticks (Tick)
board.cache_hierarchy.clusters.l2_5_cache.overallMissLatency::total     81245843                       # number of overall miss ticks (Tick)
board.cache_hierarchy.clusters.l2_5_cache.demandAccesses::cache_hierarchy.clusters.l1dcache.prefetcher          142                       # number of demand (read+write) accesses (Count)
board.cache_hierarchy.clusters.l2_5_cache.demandAccesses::cache_hierarchy.clusters.l2cache.prefetcher         3034                       # number of demand (read+write) accesses (Count)
board.cache_hierarchy.clusters.l2_5_cache.demandAccesses::processor.cores.core.inst          415                       # number of demand (read+write) accesses (Count)
board.cache_hierarchy.clusters.l2_5_cache.demandAccesses::processor.cores.core.data          513                       # number of demand (read+write) accesses (Count)
board.cache_hierarchy.clusters.l2_5_cache.demandAccesses::total         4104                       # number of demand (read+write) accesses (Count)
board.cache_hierarchy.clusters.l2_5_cache.overallAccesses::cache_hierarchy.clusters.l1dcache.prefetcher          142                       # number of overall (read+write) accesses (Count)
board.cache_hierarchy.clusters.l2_5_cache.overallAccesses::cache_hierarchy.clusters.l2cache.prefetcher         3034                       # number of overall (read+write) accesses (Count)
board.cache_hierarchy.clusters.l2_5_cache.overallAccesses::processor.cores.core.inst          415                       # number of overall (read+write) accesses (Count)
board.cache_hierarchy.clusters.l2_5_cache.overallAccesses::processor.cores.core.data          513                       # number of overall (read+write) accesses (Count)
board.cache_hierarchy.clusters.l2_5_cache.overallAccesses::total         4104                       # number of overall (read+write) accesses (Count)
board.cache_hierarchy.clusters.l2_5_cache.demandMissRate::cache_hierarchy.clusters.l1dcache.prefetcher     0.598592                       # miss rate for demand accesses (Ratio)
board.cache_hierarchy.clusters.l2_5_cache.demandMissRate::cache_hierarchy.clusters.l2cache.prefetcher     0.087673                       # miss rate for demand accesses (Ratio)
board.cache_hierarchy.clusters.l2_5_cache.demandMissRate::processor.cores.core.inst            1                       # miss rate for demand accesses (Ratio)
board.cache_hierarchy.clusters.l2_5_cache.demandMissRate::processor.cores.core.data     0.452242                       # miss rate for demand accesses (Ratio)
board.cache_hierarchy.clusters.l2_5_cache.demandMissRate::total     0.243177                       # miss rate for demand accesses (Ratio)
board.cache_hierarchy.clusters.l2_5_cache.overallMissRate::cache_hierarchy.clusters.l1dcache.prefetcher     0.598592                       # miss rate for overall accesses (Ratio)
board.cache_hierarchy.clusters.l2_5_cache.overallMissRate::cache_hierarchy.clusters.l2cache.prefetcher     0.087673                       # miss rate for overall accesses (Ratio)
board.cache_hierarchy.clusters.l2_5_cache.overallMissRate::processor.cores.core.inst            1                       # miss rate for overall accesses (Ratio)
board.cache_hierarchy.clusters.l2_5_cache.overallMissRate::processor.cores.core.data     0.452242                       # miss rate for overall accesses (Ratio)
board.cache_hierarchy.clusters.l2_5_cache.overallMissRate::total     0.243177                       # miss rate for overall accesses (Ratio)
board.cache_hierarchy.clusters.l2_5_cache.demandAvgMissLatency::cache_hierarchy.clusters.l1dcache.prefetcher 129203.952941                       # average overall miss latency in ticks ((Tick/Count))
board.cache_hierarchy.clusters.l2_5_cache.demandAvgMissLatency::cache_hierarchy.clusters.l2cache.prefetcher 96673.312030                       # average overall miss latency in ticks ((Tick/Count))
board.cache_hierarchy.clusters.l2_5_cache.demandAvgMissLatency::processor.cores.core.inst 63826.872289                       # average overall miss latency in ticks ((Tick/Count))
board.cache_hierarchy.clusters.l2_5_cache.demandAvgMissLatency::processor.cores.core.data 77845.922414                       # average overall miss latency in ticks ((Tick/Count))
board.cache_hierarchy.clusters.l2_5_cache.demandAvgMissLatency::total 81408.660321                       # average overall miss latency in ticks ((Tick/Count))
board.cache_hierarchy.clusters.l2_5_cache.overallAvgMissLatency::cache_hierarchy.clusters.l1dcache.prefetcher 129203.952941                       # average overall miss latency ((Tick/Count))
board.cache_hierarchy.clusters.l2_5_cache.overallAvgMissLatency::cache_hierarchy.clusters.l2cache.prefetcher 96673.312030                       # average overall miss latency ((Tick/Count))
board.cache_hierarchy.clusters.l2_5_cache.overallAvgMissLatency::processor.cores.core.inst 63826.872289                       # average overall miss latency ((Tick/Count))
board.cache_hierarchy.clusters.l2_5_cache.overallAvgMissLatency::processor.cores.core.data 77845.922414                       # average overall miss latency ((Tick/Count))
board.cache_hierarchy.clusters.l2_5_cache.overallAvgMissLatency::total 81408.660321                       # average overall miss latency ((Tick/Count))
board.cache_hierarchy.clusters.l2_5_cache.blockedCycles::no_mshrs          262                       # number of cycles access was blocked (Cycle)
board.cache_hierarchy.clusters.l2_5_cache.blockedCycles::no_targets            0                       # number of cycles access was blocked (Cycle)
board.cache_hierarchy.clusters.l2_5_cache.blockedCauses::no_mshrs            6                       # number of times access was blocked (Count)
board.cache_hierarchy.clusters.l2_5_cache.blockedCauses::no_targets            0                       # number of times access was blocked (Count)
board.cache_hierarchy.clusters.l2_5_cache.avgBlocked::no_mshrs    43.666667                       # average number of cycles each access was blocked ((Cycle/Count))
board.cache_hierarchy.clusters.l2_5_cache.avgBlocked::no_targets          nan                       # average number of cycles each access was blocked ((Cycle/Count))
board.cache_hierarchy.clusters.l2_5_cache.demandMshrHits::cache_hierarchy.clusters.l1dcache.prefetcher            5                       # number of demand (read+write) MSHR hits (Count)
board.cache_hierarchy.clusters.l2_5_cache.demandMshrHits::cache_hierarchy.clusters.l2cache.prefetcher           97                       # number of demand (read+write) MSHR hits (Count)
board.cache_hierarchy.clusters.l2_5_cache.demandMshrHits::total          102                       # number of demand (read+write) MSHR hits (Count)
board.cache_hierarchy.clusters.l2_5_cache.overallMshrHits::cache_hierarchy.clusters.l1dcache.prefetcher            5                       # number of overall MSHR hits (Count)
board.cache_hierarchy.clusters.l2_5_cache.overallMshrHits::cache_hierarchy.clusters.l2cache.prefetcher           97                       # number of overall MSHR hits (Count)
board.cache_hierarchy.clusters.l2_5_cache.overallMshrHits::total          102                       # number of overall MSHR hits (Count)
board.cache_hierarchy.clusters.l2_5_cache.demandMshrMisses::cache_hierarchy.clusters.l1dcache.prefetcher           80                       # number of demand (read+write) MSHR misses (Count)
board.cache_hierarchy.clusters.l2_5_cache.demandMshrMisses::cache_hierarchy.clusters.l2cache.prefetcher          169                       # number of demand (read+write) MSHR misses (Count)
board.cache_hierarchy.clusters.l2_5_cache.demandMshrMisses::processor.cores.core.inst          415                       # number of demand (read+write) MSHR misses (Count)
board.cache_hierarchy.clusters.l2_5_cache.demandMshrMisses::processor.cores.core.data          232                       # number of demand (read+write) MSHR misses (Count)
board.cache_hierarchy.clusters.l2_5_cache.demandMshrMisses::total          896                       # number of demand (read+write) MSHR misses (Count)
board.cache_hierarchy.clusters.l2_5_cache.overallMshrMisses::cache_hierarchy.clusters.l1dcache.prefetcher           80                       # number of overall MSHR misses (Count)
board.cache_hierarchy.clusters.l2_5_cache.overallMshrMisses::cache_hierarchy.clusters.l2_5_cache.prefetcher         1699                       # number of overall MSHR misses (Count)
board.cache_hierarchy.clusters.l2_5_cache.overallMshrMisses::cache_hierarchy.clusters.l2cache.prefetcher          169                       # number of overall MSHR misses (Count)
board.cache_hierarchy.clusters.l2_5_cache.overallMshrMisses::processor.cores.core.inst          415                       # number of overall MSHR misses (Count)
board.cache_hierarchy.clusters.l2_5_cache.overallMshrMisses::processor.cores.core.data          232                       # number of overall MSHR misses (Count)
board.cache_hierarchy.clusters.l2_5_cache.overallMshrMisses::total         2595                       # number of overall MSHR misses (Count)
board.cache_hierarchy.clusters.l2_5_cache.demandMshrMissLatency::cache_hierarchy.clusters.l1dcache.prefetcher     10599720                       # number of demand (read+write) MSHR miss ticks (Tick)
board.cache_hierarchy.clusters.l2_5_cache.demandMshrMissLatency::cache_hierarchy.clusters.l2cache.prefetcher     21152434                       # number of demand (read+write) MSHR miss ticks (Tick)
board.cache_hierarchy.clusters.l2_5_cache.demandMshrMissLatency::processor.cores.core.inst     26350623                       # number of demand (read+write) MSHR miss ticks (Tick)
board.cache_hierarchy.clusters.l2_5_cache.demandMshrMissLatency::processor.cores.core.data     17983331                       # number of demand (read+write) MSHR miss ticks (Tick)
board.cache_hierarchy.clusters.l2_5_cache.demandMshrMissLatency::total     76086108                       # number of demand (read+write) MSHR miss ticks (Tick)
board.cache_hierarchy.clusters.l2_5_cache.overallMshrMissLatency::cache_hierarchy.clusters.l1dcache.prefetcher     10599720                       # number of overall MSHR miss ticks (Tick)
board.cache_hierarchy.clusters.l2_5_cache.overallMshrMissLatency::cache_hierarchy.clusters.l2_5_cache.prefetcher    116241653                       # number of overall MSHR miss ticks (Tick)
board.cache_hierarchy.clusters.l2_5_cache.overallMshrMissLatency::cache_hierarchy.clusters.l2cache.prefetcher     21152434                       # number of overall MSHR miss ticks (Tick)
board.cache_hierarchy.clusters.l2_5_cache.overallMshrMissLatency::processor.cores.core.inst     26350623                       # number of overall MSHR miss ticks (Tick)
board.cache_hierarchy.clusters.l2_5_cache.overallMshrMissLatency::processor.cores.core.data     17983331                       # number of overall MSHR miss ticks (Tick)
board.cache_hierarchy.clusters.l2_5_cache.overallMshrMissLatency::total    192327761                       # number of overall MSHR miss ticks (Tick)
board.cache_hierarchy.clusters.l2_5_cache.demandMshrMissRate::cache_hierarchy.clusters.l1dcache.prefetcher     0.563380                       # mshr miss ratio for demand accesses (Ratio)
board.cache_hierarchy.clusters.l2_5_cache.demandMshrMissRate::cache_hierarchy.clusters.l2cache.prefetcher     0.055702                       # mshr miss ratio for demand accesses (Ratio)
board.cache_hierarchy.clusters.l2_5_cache.demandMshrMissRate::processor.cores.core.inst            1                       # mshr miss ratio for demand accesses (Ratio)
board.cache_hierarchy.clusters.l2_5_cache.demandMshrMissRate::processor.cores.core.data     0.452242                       # mshr miss ratio for demand accesses (Ratio)
board.cache_hierarchy.clusters.l2_5_cache.demandMshrMissRate::total     0.218324                       # mshr miss ratio for demand accesses (Ratio)
board.cache_hierarchy.clusters.l2_5_cache.overallMshrMissRate::cache_hierarchy.clusters.l1dcache.prefetcher     0.563380                       # mshr miss ratio for overall accesses (Ratio)
board.cache_hierarchy.clusters.l2_5_cache.overallMshrMissRate::cache_hierarchy.clusters.l2_5_cache.prefetcher          inf                       # mshr miss ratio for overall accesses (Ratio)
board.cache_hierarchy.clusters.l2_5_cache.overallMshrMissRate::cache_hierarchy.clusters.l2cache.prefetcher     0.055702                       # mshr miss ratio for overall accesses (Ratio)
board.cache_hierarchy.clusters.l2_5_cache.overallMshrMissRate::processor.cores.core.inst            1                       # mshr miss ratio for overall accesses (Ratio)
board.cache_hierarchy.clusters.l2_5_cache.overallMshrMissRate::processor.cores.core.data     0.452242                       # mshr miss ratio for overall accesses (Ratio)
board.cache_hierarchy.clusters.l2_5_cache.overallMshrMissRate::total     0.632310                       # mshr miss ratio for overall accesses (Ratio)
board.cache_hierarchy.clusters.l2_5_cache.demandAvgMshrMissLatency::cache_hierarchy.clusters.l1dcache.prefetcher 132496.500000                       # average overall mshr miss latency ((Tick/Count))
board.cache_hierarchy.clusters.l2_5_cache.demandAvgMshrMissLatency::cache_hierarchy.clusters.l2cache.prefetcher 125162.331361                       # average overall mshr miss latency ((Tick/Count))
board.cache_hierarchy.clusters.l2_5_cache.demandAvgMshrMissLatency::processor.cores.core.inst 63495.477108                       # average overall mshr miss latency ((Tick/Count))
board.cache_hierarchy.clusters.l2_5_cache.demandAvgMshrMissLatency::processor.cores.core.data 77514.357759                       # average overall mshr miss latency ((Tick/Count))
board.cache_hierarchy.clusters.l2_5_cache.demandAvgMshrMissLatency::total 84917.531250                       # average overall mshr miss latency ((Tick/Count))
board.cache_hierarchy.clusters.l2_5_cache.overallAvgMshrMissLatency::cache_hierarchy.clusters.l1dcache.prefetcher 132496.500000                       # average overall mshr miss latency ((Tick/Count))
board.cache_hierarchy.clusters.l2_5_cache.overallAvgMshrMissLatency::cache_hierarchy.clusters.l2_5_cache.prefetcher 68417.688640                       # average overall mshr miss latency ((Tick/Count))
board.cache_hierarchy.clusters.l2_5_cache.overallAvgMshrMissLatency::cache_hierarchy.clusters.l2cache.prefetcher 125162.331361                       # average overall mshr miss latency ((Tick/Count))
board.cache_hierarchy.clusters.l2_5_cache.overallAvgMshrMissLatency::processor.cores.core.inst 63495.477108                       # average overall mshr miss latency ((Tick/Count))
board.cache_hierarchy.clusters.l2_5_cache.overallAvgMshrMissLatency::processor.cores.core.data 77514.357759                       # average overall mshr miss latency ((Tick/Count))
board.cache_hierarchy.clusters.l2_5_cache.overallAvgMshrMissLatency::total 74114.744123                       # average overall mshr miss latency ((Tick/Count))
board.cache_hierarchy.clusters.l2_5_cache.replacements            0                       # number of replacements (Count)
board.cache_hierarchy.clusters.l2_5_cache.HardPFReq.mshrMisses::cache_hierarchy.clusters.l2_5_cache.prefetcher         1699                       # number of HardPFReq MSHR misses (Count)
board.cache_hierarchy.clusters.l2_5_cache.HardPFReq.mshrMisses::total         1699                       # number of HardPFReq MSHR misses (Count)
board.cache_hierarchy.clusters.l2_5_cache.HardPFReq.mshrMissLatency::cache_hierarchy.clusters.l2_5_cache.prefetcher    116241653                       # number of HardPFReq MSHR miss ticks (Tick)
board.cache_hierarchy.clusters.l2_5_cache.HardPFReq.mshrMissLatency::total    116241653                       # number of HardPFReq MSHR miss ticks (Tick)
board.cache_hierarchy.clusters.l2_5_cache.HardPFReq.mshrMissRate::cache_hierarchy.clusters.l2_5_cache.prefetcher          inf                       # mshr miss rate for HardPFReq accesses (Ratio)
[...]
board.processor.cores.core.fetch.nisnDist::2       399035      1.86%     78.02% # Number of instructions fetched each cycle (Total) (Count)
board.processor.cores.core.fetch.nisnDist::3       273376      1.28%     79.29% # Number of instructions fetched each cycle (Total) (Count)
board.processor.cores.core.fetch.nisnDist::4       297707      1.39%     80.68% # Number of instructions fetched each cycle (Total) (Count)
board.processor.cores.core.fetch.nisnDist::5       265930      1.24%     81.92% # Number of instructions fetched each cycle (Total) (Count)
board.processor.cores.core.fetch.nisnDist::6       262489      1.22%     83.15% # Number of instructions fetched each cycle (Total) (Count)
board.processor.cores.core.fetch.nisnDist::7       395341      1.84%     84.99% # Number of instructions fetched each cycle (Total) (Count)
board.processor.cores.core.fetch.nisnDist::8      3216654     15.01%    100.00% # Number of instructions fetched each cycle (Total) (Count)
board.processor.cores.core.fetch.nisnDist::overflows            0      0.00%    100.00% # Number of instructions fetched each cycle (Total) (Count)
board.processor.cores.core.fetch.nisnDist::min_value            0                       # Number of instructions fetched each cycle (Total) (Count)
board.processor.cores.core.fetch.nisnDist::max_value            8                       # Number of instructions fetched each cycle (Total) (Count)
board.processor.cores.core.fetch.nisnDist::total     21433427                       # Number of instructions fetched each cycle (Total) (Count)
board.processor.cores.core.fetchStats0.numInsts     35346985                       # Number of instructions fetched (thread level) (Count)
board.processor.cores.core.fetchStats0.numOps            0                       # Number of ops (including micro ops) fetched (thread level) (Count)
board.processor.cores.core.fetchStats0.fetchRate     1.645680                       # Number of inst fetches per cycle ((Count/Cycle))
board.processor.cores.core.fetchStats0.numBranches      1099361                       # Number of branches fetched (Count)
board.processor.cores.core.fetchStats0.branchRate     0.051184                       # Number of branch fetches per cycle (Ratio)
board.processor.cores.core.fetchStats0.icacheStallCycles        21813                       # ICache total stall cycles (Cycle)
board.processor.cores.core.fetchStats0.numFetchSuspends            0                       # Number of times Execute suspended instruction fetching (Count)
board.processor.cores.core.iew.idleCycles            0                       # Number of cycles IEW is idle (Cycle)
board.processor.cores.core.iew.squashCycles        11125                       # Number of cycles IEW is squashing (Cycle)
board.processor.cores.core.iew.blockCycles       134996                       # Number of cycles IEW is blocking (Cycle)
board.processor.cores.core.iew.unblockCycles      1354076                       # Number of cycles IEW is unblocking (Cycle)
board.processor.cores.core.iew.dispatchedInsts     34744975                       # Number of instructions dispatched to IQ (Count)
board.processor.cores.core.iew.dispSquashedInsts          233                       # Number of squashed instructions skipped by dispatch (Count)
board.processor.cores.core.iew.dispLoadInsts     13626983                       # Number of dispatched load instructions (Count)
board.processor.cores.core.iew.dispStoreInsts      2135614                       # Number of dispatched store instructions (Count)
board.processor.cores.core.iew.dispNonSpecInsts          105                       # Number of dispatched non-speculative instructions (Count)
board.processor.cores.core.iew.iqFullEvents        46357                       # Number of times the IQ has become full, causing a stall (Count)
board.processor.cores.core.iew.lsqFullEvents      1299908                       # Number of times the LSQ has become full, causing a stall (Count)
board.processor.cores.core.iew.memOrderViolationEvents          209                       # Number of memory order violations (Count)
board.processor.cores.core.iew.predictedTakenIncorrect        10444                       # Number of branches that were predicted taken incorrectly (Count)
board.processor.cores.core.iew.predictedNotTakenIncorrect          588                       # Number of branches that were predicted not taken incorrectly (Count)
board.processor.cores.core.iew.branchMispredicts        11032                       # Number of branch mispredicts detected at execute (Count)
board.processor.cores.core.iew.instsToCommit     34301405                       # Cumulative count of insts sent to commit (Count)
board.processor.cores.core.iew.writebackCount     34290868                       # Cumulative count of insts written-back (Count)
board.processor.cores.core.iew.producerInst     27489720                       # Number of instructions producing a value (Count)
board.processor.cores.core.iew.consumerInst     27503308                       # Number of instructions consuming a value (Count)
board.processor.cores.core.iew.wbRate        1.596510                       # Insts written-back per cycle ((Count/Cycle))
board.processor.cores.core.iew.wbFanout      0.999506                       # Average fanout of values written-back ((Count/Count))
board.processor.cores.core.lsq0.forwLoads      3112085                       # Number of loads that had data forwarded from stores (Count)
board.processor.cores.core.lsq0.squashedLoads       313626                       # Number of loads squashed (Count)
board.processor.cores.core.lsq0.ignoredResponses            9                       # Number of memory responses ignored because the instruction is squashed (Count)
board.processor.cores.core.lsq0.memOrderViolation          209                       # Number of memory ordering violations (Count)
board.processor.cores.core.lsq0.squashedStores        43358                       # Number of stores squashed (Count)
board.processor.cores.core.lsq0.rescheduledLoads            2                       # Number of loads that were rescheduled (Count)
board.processor.cores.core.lsq0.blockedByCache            2                       # Number of times an access to memory failed due to the cache being blocked (Count)
board.processor.cores.core.lsq0.loadToUse::samples     13313357                       # Distribution of cycle latency between the first time a load is issued and its completion (Unspecified)
board.processor.cores.core.lsq0.loadToUse::mean     2.222151                       # Distribution of cycle latency between the first time a load is issued and its completion (Unspecified)
board.processor.cores.core.lsq0.loadToUse::stdev     1.247281                       # Distribution of cycle latency between the first time a load is issued and its completion (Unspecified)
board.processor.cores.core.lsq0.loadToUse::0-9     13250470     99.53%     99.53% # Distribution of cycle latency between the first time a load is issued and its completion (Unspecified)
board.processor.cores.core.lsq0.loadToUse::10-19        62469      0.47%    100.00% # Distribution of cycle latency between the first time a load is issued and its completion (Unspecified)
board.processor.cores.core.lsq0.loadToUse::20-29          226      0.00%    100.00% # Distribution of cycle latency between the first time a load is issued and its completion (Unspecified)
board.processor.cores.core.lsq0.loadToUse::30-39           50      0.00%    100.00% # Distribution of cycle latency between the first time a load is issued and its completion (Unspecified)
board.processor.cores.core.lsq0.loadToUse::40-49            9      0.00%    100.00% # Distribution of cycle latency between the first time a load is issued and its completion (Unspecified)
board.processor.cores.core.lsq0.loadToUse::50-59            3      0.00%    100.00% # Distribution of cycle latency between the first time a load is issued and its completion (Unspecified)
board.processor.cores.core.lsq0.loadToUse::60-69            2      0.00%    100.00% # Distribution of cycle latency between the first time a load is issued and its completion (Unspecified)
board.processor.cores.core.lsq0.loadToUse::70-79            3      0.00%    100.00% # Distribution of cycle latency between the first time a load is issued and its completion (Unspecified)
board.processor.cores.core.lsq0.loadToUse::80-89            3      0.00%    100.00% # Distribution of cycle latency between the first time a load is issued and its completion (Unspecified)
board.processor.cores.core.lsq0.loadToUse::90-99            3      0.00%    100.00% # Distribution of cycle latency between the first time a load is issued and its completion (Unspecified)
board.processor.cores.core.lsq0.loadToUse::100-109            2      0.00%    100.00% # Distribution of cycle latency between the first time a load is issued and its completion (Unspecified)
board.processor.cores.core.lsq0.loadToUse::110-119            2      0.00%    100.00% # Distribution of cycle latency between the first time a load is issued and its completion (Unspecified)
board.processor.cores.core.lsq0.loadToUse::120-129            3      0.00%    100.00% # Distribution of cycle latency between the first time a load is issued and its completion (Unspecified)
board.processor.cores.core.lsq0.loadToUse::130-139            1      0.00%    100.00% # Distribution of cycle latency between the first time a load is issued and its completion (Unspecified)
board.processor.cores.core.lsq0.loadToUse::140-149            3      0.00%    100.00% # Distribution of cycle latency between the first time a load is issued and its completion (Unspecified)
board.processor.cores.core.lsq0.loadToUse::150-159            5      0.00%    100.00% # Distribution of cycle latency between the first time a load is issued and its completion (Unspecified)
board.processor.cores.core.lsq0.loadToUse::160-169            4      0.00%    100.00% # Distribution of cycle latency between the first time a load is issued and its completion (Unspecified)
board.processor.cores.core.lsq0.loadToUse::170-179            1      0.00%    100.00% # Distribution of cycle latency between the first time a load is issued and its completion (Unspecified)
board.processor.cores.core.lsq0.loadToUse::180-189           25      0.00%    100.00% # Distribution of cycle latency between the first time a load is issued and its completion (Unspecified)
board.processor.cores.core.lsq0.loadToUse::190-199           18      0.00%    100.00% # Distribution of cycle latency between the first time a load is issued and its completion (Unspecified)
board.processor.cores.core.lsq0.loadToUse::200-209            5      0.00%    100.00% # Distribution of cycle latency between the first time a load is issued and its completion (Unspecified)
board.processor.cores.core.lsq0.loadToUse::210-219            3      0.00%    100.00% # Distribution of cycle latency between the first time a load is issued and its completion (Unspecified)
board.processor.cores.core.lsq0.loadToUse::220-229           16      0.00%    100.00% # Distribution of cycle latency between the first time a load is issued and its completion (Unspecified)
board.processor.cores.core.lsq0.loadToUse::230-239            4      0.00%    100.00% # Distribution of cycle latency between the first time a load is issued and its completion (Unspecified)
board.processor.cores.core.lsq0.loadToUse::240-249            5      0.00%    100.00% # Distribution of cycle latency between the first time a load is issued and its completion (Unspecified)
board.processor.cores.core.lsq0.loadToUse::250-259            2      0.00%    100.00% # Distribution of cycle latency between the first time a load is issued and its completion (Unspecified)
board.processor.cores.core.lsq0.loadToUse::260-269            6      0.00%    100.00% # Distribution of cycle latency between the first time a load is issued and its completion (Unspecified)
board.processor.cores.core.lsq0.loadToUse::270-279            4      0.00%    100.00% # Distribution of cycle latency between the first time a load is issued and its completion (Unspecified)
board.processor.cores.core.lsq0.loadToUse::280-289            1      0.00%    100.00% # Distribution of cycle latency between the first time a load is issued and its completion (Unspecified)
board.processor.cores.core.lsq0.loadToUse::overflows            9      0.00%    100.00% # Distribution of cycle latency between the first time a load is issued and its completion (Unspecified)
board.processor.cores.core.lsq0.loadToUse::min_value            2                       # Distribution of cycle latency between the first time a load is issued and its completion (Unspecified)
board.processor.cores.core.lsq0.loadToUse::max_value         1243                       # Distribution of cycle latency between the first time a load is issued and its completion (Unspecified)
board.processor.cores.core.lsq0.loadToUse::total     13313357                       # Distribution of cycle latency between the first time a load is issued and its completion (Unspecified)
board.processor.cores.core.mmu.dtb.readHits            0                       # read hits (Count)
board.processor.cores.core.mmu.dtb.readMisses            0                       # read misses (Count)
board.processor.cores.core.mmu.dtb.readAccesses            0                       # read accesses (Count)
board.processor.cores.core.mmu.dtb.writeHits            0                       # write hits (Count)
board.processor.cores.core.mmu.dtb.writeMisses            0                       # write misses (Count)
board.processor.cores.core.mmu.dtb.writeAccesses            0                       # write accesses (Count)
board.processor.cores.core.mmu.dtb.hits             0                       # Total TLB (read and write) hits (Count)
board.processor.cores.core.mmu.dtb.misses            0                       # Total TLB (read and write) misses (Count)
board.processor.cores.core.mmu.dtb.accesses            0                       # Total TLB (read and write) accesses (Count)
board.processor.cores.core.mmu.dtb.walker.num_4kb_walks            0                       # Completed page walks with 4KB pages (Count)
board.processor.cores.core.mmu.dtb.walker.num_2mb_walks            0                       # Completed page walks with 2MB pages (Count)
board.processor.cores.core.mmu.dtb.walker.power_state.pwrStateResidencyTicks::UNDEFINED   7152389118                       # Cumulative time (in ticks) in various power states (Tick)
board.processor.cores.core.mmu.itb.readHits            0                       # read hits (Count)
board.processor.cores.core.mmu.itb.readMisses            0                       # read misses (Count)
board.processor.cores.core.mmu.itb.readAccesses            0                       # read accesses (Count)
board.processor.cores.core.mmu.itb.writeHits            0                       # write hits (Count)
board.processor.cores.core.mmu.itb.writeMisses            0                       # write misses (Count)
board.processor.cores.core.mmu.itb.writeAccesses            0                       # write accesses (Count)
board.processor.cores.core.mmu.itb.hits             0                       # Total TLB (read and write) hits (Count)
board.processor.cores.core.mmu.itb.misses            0                       # Total TLB (read and write) misses (Count)
board.processor.cores.core.mmu.itb.accesses            0                       # Total TLB (read and write) accesses (Count)
board.processor.cores.core.mmu.itb.walker.num_4kb_walks            0                       # Completed page walks with 4KB pages (Count)
board.processor.cores.core.mmu.itb.walker.num_2mb_walks            0                       # Completed page walks with 2MB pages (Count)
board.processor.cores.core.mmu.itb.walker.power_state.pwrStateResidencyTicks::UNDEFINED   7152389118                       # Cumulative time (in ticks) in various power states (Tick)
board.processor.cores.core.power_state.pwrStateResidencyTicks::ON   7152389118                       # Cumulative time (in ticks) in various power states (Tick)
board.processor.cores.core.rename.squashCycles        11125                       # Number of cycles rename is squashing (Cycle)
board.processor.cores.core.rename.idleCycles      2211606                       # Number of cycles rename is idle (Cycle)
board.processor.cores.core.rename.blockCycles      1565079                       # Number of cycles rename is blocking (Cycle)
board.processor.cores.core.rename.serializeStallCycles         3638                       # count of cycles rename stalled for serializing inst (Cycle)
board.processor.cores.core.rename.runCycles      3321076                       # Number of cycles rename is running (Cycle)
board.processor.cores.core.rename.unblockCycles     14320903                       # Number of cycles rename is unblocking (Cycle)
board.processor.cores.core.rename.renamedInsts     34771093                       # Number of instructions processed by rename (Count)
board.processor.cores.core.rename.ROBFullEvents            8                       # Number of times rename has blocked due to ROB full (Count)
board.processor.cores.core.rename.IQFullEvents      6029646                       # Number of times rename has blocked due to IQ full (Count)
board.processor.cores.core.rename.LQFullEvents     13975752                       # Number of times rename has blocked due to LQ full (Count)
board.processor.cores.core.rename.SQFullEvents         7109                       # Number of times rename has blocked due to SQ full (Count)
board.processor.cores.core.rename.renamedOperands     31558130                       # Number of destination operands rename has renamed (Count)
board.processor.cores.core.rename.lookups     46317096                       # Number of register rename lookups that rename has made (Count)
board.processor.cores.core.rename.intLookups     46295420                       # Number of integer rename lookups (Count)
board.processor.cores.core.rename.fpLookups           12                       # Number of floating rename lookups (Count)
board.processor.cores.core.rename.committedMaps     30809748                       # Number of HB maps that are committed (Count)
board.processor.cores.core.rename.undoneMaps       748382                       # Number of HB maps that are undone due to squashing (Count)
board.processor.cores.core.rename.serializing           70                       # count of serializing insts renamed (Count)
board.processor.cores.core.rename.tempSerializing           70                       # count of temporary serializing insts renamed (Count)
board.processor.cores.core.rename.skidInsts     13586577                       # count of insts added to the skid buffer (Count)
board.processor.cores.core.rob.reads         54012335                       # The number of ROB reads (Count)
board.processor.cores.core.rob.writes        69595792                       # The number of ROB writes (Count)
board.processor.cores.core.thread_0.numInsts     33954546                       # Number of Instructions committed (Count)
board.processor.cores.core.thread_0.numOps     33954560                       # Number of Ops committed (Count)
board.processor.cores.core.thread_0.numMemRefs            0                       # Number of Memory References (Count)
board.processor.cores.core.workload.numSyscalls           14                       # Number of system calls (Count)
board.workload.inst.arm                             0                       # number of arm instructions executed (Count)
board.workload.inst.quiesce                         0                       # number of quiesce instructions executed (Count)

---------- End Simulation Statistics   ----------
