
---------- Begin Simulation Statistics ----------
simSeconds                                   0.013863                       # Number of seconds simulated (Second)
simTicks                                  13863090699                       # Number of ticks simulated (Tick)
finalTick                                 13863090699                       # Number of ticks from beginning of simulation (restored from checkpoints and never reset) (Tick)
simFreq                                  1000000000000                       # The number of ticks per simulated second ((Tick/Second))
hostSeconds                                    211.98                       # Real time elapsed on the host (Second)
hostTickRate                                 65397467                       # The number of ticks simulated per host second (ticks/s) ((Tick/Second))
hostMemory                                    1313792                       # Number of bytes of host memory used (Byte)
simInsts                                     47268961                       # Number of instructions simulated (Count)
simOps                                       47335057                       # Number of ops (including micro ops) simulated (Count)
hostInstRate                                   222986                       # Simulator instruction rate (inst/s) ((Count/Second))
hostOpRate                                     223297                       # Simulator op (including micro ops) rate (op/s) ((Count/Second))
board.cache_hierarchy.clusters.dptw_cache.blockedCycles::no_mshrs            0                       # number of cycles access was blocked (Cycle)
board.cache_hierarchy.clusters.dptw_cache.blockedCycles::no_targets            0                       # number of cycles access was blocked (Cycle)
board.cache_hierarchy.clusters.dptw_cache.blockedCauses::no_mshrs            0                       # number of times access was blocked (Count)
board.cache_hierarchy.clusters.dptw_cache.blockedCauses::no_targets            0                       # number of times access was blocked (Count)
board.cache_hierarchy.clusters.dptw_cache.avgBlocked::no_mshrs          nan                       # average number of cycles each access was blocked ((Cycle/Count))
board.cache_hierarchy.clusters.dptw_cache.avgBlocked::no_targets          nan                       # average number of cycles each access was blocked ((Cycle/Count))
board.cache_hierarchy.clusters.dptw_cache.replacements            0                       # number of replacements (Count)
board.cache_hierarchy.clusters.dptw_cache.power_state.pwrStateResidencyTicks::UNDEFINED  13863090699                       # Cumulative time (in ticks) in various power states (Tick)
board.cache_hierarchy.clusters.dptw_cache.tags.tagsInUse            0                       # Average ticks per tags in use ((Tick/Count))
board.cache_hierarchy.clusters.dptw_cache.tags.totalRefs            0                       # Total number of references to valid blocks. (Count)
board.cache_hierarchy.clusters.dptw_cache.tags.sampledRefs            0                       # Sample count of references to valid blocks. (Count)
board.cache_hierarchy.clusters.dptw_cache.tags.avgRefs          nan                       # Average number of references to valid blocks. ((Count/Count))
board.cache_hierarchy.clusters.dptw_cache.tags.warmupTick            0                       # The tick when the warmup percentage was hit. (Tick)
board.cache_hierarchy.clusters.dptw_cache.tags.tagAccesses            0                       # Number of tag accesses (Count)
board.cache_hierarchy.clusters.dptw_cache.tags.dataAccesses            0                       # Number of data accesses (Count)
board.cache_hierarchy.clusters.dptw_cache.tags.power_state.pwrStateResidencyTicks::UNDEFINED  13863090699                       # Cumulative time (in ticks) in various power states (Tick)
board.cache_hierarchy.clusters.iptw_cache.blockedCycles::no_mshrs            0                       # number of cycles access was blocked (Cycle)
board.cache_hierarchy.clusters.iptw_cache.blockedCycles::no_targets            0                       # number of cycles access was blocked (Cycle)
board.cache_hierarchy.clusters.iptw_cache.blockedCauses::no_mshrs            0                       # number of times access was blocked (Count)
board.cache_hierarchy.clusters.iptw_cache.blockedCauses::no_targets            0                       # number of times access was blocked (Count)
board.cache_hierarchy.clusters.iptw_cache.avgBlocked::no_mshrs          nan                       # average number of cycles each access was blocked ((Cycle/Count))
board.cache_hierarchy.clusters.iptw_cache.avgBlocked::no_targets          nan                       # average number of cycles each access was blocked ((Cycle/Count))
board.cache_hierarchy.clusters.iptw_cache.replacements            0                       # number of replacements (Count)
board.cache_hierarchy.clusters.iptw_cache.power_state.pwrStateResidencyTicks::UNDEFINED  13863090699                       # Cumulative time (in ticks) in various power states (Tick)
board.cache_hierarchy.clusters.iptw_cache.tags.tagsInUse            0                       # Average ticks per tags in use ((Tick/Count))
board.cache_hierarchy.clusters.iptw_cache.tags.totalRefs            0                       # Total number of references to valid blocks. (Count)
board.cache_hierarchy.clusters.iptw_cache.tags.sampledRefs            0                       # Sample count of references to valid blocks. (Count)
board.cache_hierarchy.clusters.iptw_cache.tags.avgRefs          nan                       # Average number of references to valid blocks. ((Count/Count))
board.cache_hierarchy.clusters.iptw_cache.tags.warmupTick            0                       # The tick when the warmup percentage was hit. (Tick)
board.cache_hierarchy.clusters.iptw_cache.tags.tagAccesses            0                       # Number of tag accesses (Count)
board.cache_hierarchy.clusters.iptw_cache.tags.dataAccesses            0                       # Number of data accesses (Count)
board.cache_hierarchy.clusters.iptw_cache.tags.power_state.pwrStateResidencyTicks::UNDEFINED  13863090699                       # Cumulative time (in ticks) in various power states (Tick)
board.cache_hierarchy.clusters.l1dcache.demandHits::processor.cores.core.data     18428744                       # number of demand (read+write) hits (Count)
board.cache_hierarchy.clusters.l1dcache.demandHits::total     18428744                       # number of demand (read+write) hits (Count)
board.cache_hierarchy.clusters.l1dcache.overallHits::processor.cores.core.data     18428744                       # number of overall hits (Count)
board.cache_hierarchy.clusters.l1dcache.overallHits::total     18428744                       # number of overall hits (Count)
board.cache_hierarchy.clusters.l1dcache.demandMisses::processor.cores.core.data       412419                       # number of demand (read+write) misses (Count)
board.cache_hierarchy.clusters.l1dcache.demandMisses::total       412419                       # number of demand (read+write) misses (Count)
board.cache_hierarchy.clusters.l1dcache.overallMisses::processor.cores.core.data       412419                       # number of overall misses (Count)
board.cache_hierarchy.clusters.l1dcache.overallMisses::total       412419                       # number of overall misses (Count)
board.cache_hierarchy.clusters.l1dcache.demandMissLatency::processor.cores.core.data   2832632532                       # number of demand (read+write) miss ticks (Tick)
board.cache_hierarchy.clusters.l1dcache.demandMissLatency::total   2832632532                       # number of demand (read+write) miss ticks (Tick)
board.cache_hierarchy.clusters.l1dcache.overallMissLatency::processor.cores.core.data   2832632532                       # number of overall miss ticks (Tick)
board.cache_hierarchy.clusters.l1dcache.overallMissLatency::total   2832632532                       # number of overall miss ticks (Tick)
board.cache_hierarchy.clusters.l1dcache.demandAccesses::processor.cores.core.data     18841163                       # number of demand (read+write) accesses (Count)
board.cache_hierarchy.clusters.l1dcache.demandAccesses::total     18841163                       # number of demand (read+write) accesses (Count)
board.cache_hierarchy.clusters.l1dcache.overallAccesses::processor.cores.core.data     18841163                       # number of overall (read+write) accesses (Count)
board.cache_hierarchy.clusters.l1dcache.overallAccesses::total     18841163                       # number of overall (read+write) accesses (Count)
board.cache_hierarchy.clusters.l1dcache.demandMissRate::processor.cores.core.data     0.021889                       # miss rate for demand accesses (Ratio)
board.cache_hierarchy.clusters.l1dcache.demandMissRate::total     0.021889                       # miss rate for demand accesses (Ratio)
board.cache_hierarchy.clusters.l1dcache.overallMissRate::processor.cores.core.data     0.021889                       # miss rate for overall accesses (Ratio)
board.cache_hierarchy.clusters.l1dcache.overallMissRate::total     0.021889                       # miss rate for overall accesses (Ratio)
board.cache_hierarchy.clusters.l1dcache.demandAvgMissLatency::processor.cores.core.data  6868.336648                       # average overall miss latency in ticks ((Tick/Count))
board.cache_hierarchy.clusters.l1dcache.demandAvgMissLatency::total  6868.336648                       # average overall miss latency in ticks ((Tick/Count))
board.cache_hierarchy.clusters.l1dcache.overallAvgMissLatency::processor.cores.core.data  6868.336648                       # average overall miss latency ((Tick/Count))
board.cache_hierarchy.clusters.l1dcache.overallAvgMissLatency::total  6868.336648                       # average overall miss latency ((Tick/Count))
board.cache_hierarchy.clusters.l1dcache.blockedCycles::no_mshrs            0                       # number of cycles access was blocked (Cycle)
board.cache_hierarchy.clusters.l1dcache.blockedCycles::no_targets         3504                       # number of cycles access was blocked (Cycle)
board.cache_hierarchy.clusters.l1dcache.blockedCauses::no_mshrs            0                       # number of times access was blocked (Count)
board.cache_hierarchy.clusters.l1dcache.blockedCauses::no_targets          195                       # number of times access was blocked (Count)
board.cache_hierarchy.clusters.l1dcache.avgBlocked::no_mshrs          nan                       # average number of cycles each access was blocked ((Cycle/Count))
board.cache_hierarchy.clusters.l1dcache.avgBlocked::no_targets    17.969231                       # average number of cycles each access was blocked ((Cycle/Count))
board.cache_hierarchy.clusters.l1dcache.writebacks::writebacks       167546                       # number of writebacks (Count)
board.cache_hierarchy.clusters.l1dcache.writebacks::total       167546                       # number of writebacks (Count)
board.cache_hierarchy.clusters.l1dcache.demandMshrHits::processor.cores.core.data       339537                       # number of demand (read+write) MSHR hits (Count)
board.cache_hierarchy.clusters.l1dcache.demandMshrHits::total       339537                       # number of demand (read+write) MSHR hits (Count)
board.cache_hierarchy.clusters.l1dcache.overallMshrHits::processor.cores.core.data       339537                       # number of overall MSHR hits (Count)
board.cache_hierarchy.clusters.l1dcache.overallMshrHits::total       339537                       # number of overall MSHR hits (Count)
board.cache_hierarchy.clusters.l1dcache.demandMshrMisses::processor.cores.core.data        72882                       # number of demand (read+write) MSHR misses (Count)
board.cache_hierarchy.clusters.l1dcache.demandMshrMisses::total        72882                       # number of demand (read+write) MSHR misses (Count)
board.cache_hierarchy.clusters.l1dcache.overallMshrMisses::cache_hierarchy.clusters.l1dcache.prefetcher       134825                       # number of overall MSHR misses (Count)
board.cache_hierarchy.clusters.l1dcache.overallMshrMisses::processor.cores.core.data        72882                       # number of overall MSHR misses (Count)
board.cache_hierarchy.clusters.l1dcache.overallMshrMisses::total       207707                       # number of overall MSHR misses (Count)
board.cache_hierarchy.clusters.l1dcache.demandMshrMissLatency::processor.cores.core.data    678356298                       # number of demand (read+write) MSHR miss ticks (Tick)
board.cache_hierarchy.clusters.l1dcache.demandMshrMissLatency::total    678356298                       # number of demand (read+write) MSHR miss ticks (Tick)
board.cache_hierarchy.clusters.l1dcache.overallMshrMissLatency::cache_hierarchy.clusters.l1dcache.prefetcher   1046537050                       # number of overall MSHR miss ticks (Tick)
board.cache_hierarchy.clusters.l1dcache.overallMshrMissLatency::processor.cores.core.data    678356298                       # number of overall MSHR miss ticks (Tick)
board.cache_hierarchy.clusters.l1dcache.overallMshrMissLatency::total   1724893348                       # number of overall MSHR miss ticks (Tick)
board.cache_hierarchy.clusters.l1dcache.demandMshrMissRate::processor.cores.core.data     0.003868                       # mshr miss ratio for demand accesses (Ratio)
board.cache_hierarchy.clusters.l1dcache.demandMshrMissRate::total     0.003868                       # mshr miss ratio for demand accesses (Ratio)
board.cache_hierarchy.clusters.l1dcache.overallMshrMissRate::cache_hierarchy.clusters.l1dcache.prefetcher          inf                       # mshr miss ratio for overall accesses (Ratio)
board.cache_hierarchy.clusters.l1dcache.overallMshrMissRate::processor.cores.core.data     0.003868                       # mshr miss ratio for overall accesses (Ratio)
board.cache_hierarchy.clusters.l1dcache.overallMshrMissRate::total     0.011024                       # mshr miss ratio for overall accesses (Ratio)
board.cache_hierarchy.clusters.l1dcache.demandAvgMshrMissLatency::processor.cores.core.data  9307.597184                       # average overall mshr miss latency ((Tick/Count))
board.cache_hierarchy.clusters.l1dcache.demandAvgMshrMissLatency::total  9307.597184                       # average overall mshr miss latency ((Tick/Count))
board.cache_hierarchy.clusters.l1dcache.overallAvgMshrMissLatency::cache_hierarchy.clusters.l1dcache.prefetcher  7762.188392                       # average overall mshr miss latency ((Tick/Count))
board.cache_hierarchy.clusters.l1dcache.overallAvgMshrMissLatency::processor.cores.core.data  9307.597184                       # average overall mshr miss latency ((Tick/Count))
board.cache_hierarchy.clusters.l1dcache.overallAvgMshrMissLatency::total  8304.454583                       # average overall mshr miss latency ((Tick/Count))
board.cache_hierarchy.clusters.l1dcache.replacements       198211                       # number of replacements (Count)
board.cache_hierarchy.clusters.l1dcache.HardPFReq.mshrMisses::cache_hierarchy.clusters.l1dcache.prefetcher       134825                       # number of HardPFReq MSHR misses (Count)
board.cache_hierarchy.clusters.l1dcache.HardPFReq.mshrMisses::total       134825                       # number of HardPFReq MSHR misses (Count)
board.cache_hierarchy.clusters.l1dcache.HardPFReq.mshrMissLatency::cache_hierarchy.clusters.l1dcache.prefetcher   1046537050                       # number of HardPFReq MSHR miss ticks (Tick)
board.cache_hierarchy.clusters.l1dcache.HardPFReq.mshrMissLatency::total   1046537050                       # number of HardPFReq MSHR miss ticks (Tick)
board.cache_hierarchy.clusters.l1dcache.HardPFReq.mshrMissRate::cache_hierarchy.clusters.l1dcache.prefetcher          inf                       # mshr miss rate for HardPFReq accesses (Ratio)
board.cache_hierarchy.clusters.l1dcache.HardPFReq.mshrMissRate::total          inf                       # mshr miss rate for HardPFReq accesses (Ratio)
board.cache_hierarchy.clusters.l1dcache.HardPFReq.avgMshrMissLatency::cache_hierarchy.clusters.l1dcache.prefetcher  7762.188392                       # average HardPFReq mshr miss latency ((Tick/Count))
board.cache_hierarchy.clusters.l1dcache.HardPFReq.avgMshrMissLatency::total  7762.188392                       # average HardPFReq mshr miss latency ((Tick/Count))
board.cache_hierarchy.clusters.l1dcache.LoadLockedReq.hits::processor.cores.core.data          382                       # number of LoadLockedReq hits (Count)
board.cache_hierarchy.clusters.l1dcache.LoadLockedReq.hits::total          382                       # number of LoadLockedReq hits (Count)
board.cache_hierarchy.clusters.l1dcache.LoadLockedReq.misses::processor.cores.core.data           52                       # number of LoadLockedReq misses (Count)
board.cache_hierarchy.clusters.l1dcache.LoadLockedReq.misses::total           52                       # number of LoadLockedReq misses (Count)
board.cache_hierarchy.clusters.l1dcache.LoadLockedReq.missLatency::processor.cores.core.data       865800                       # number of LoadLockedReq miss ticks (Tick)
board.cache_hierarchy.clusters.l1dcache.LoadLockedReq.missLatency::total       865800                       # number of LoadLockedReq miss ticks (Tick)
board.cache_hierarchy.clusters.l1dcache.LoadLockedReq.accesses::processor.cores.core.data          434                       # number of LoadLockedReq accesses(hits+misses) (Count)
board.cache_hierarchy.clusters.l1dcache.LoadLockedReq.accesses::total          434                       # number of LoadLockedReq accesses(hits+misses) (Count)
board.cache_hierarchy.clusters.l1dcache.LoadLockedReq.missRate::processor.cores.core.data     0.119816                       # miss rate for LoadLockedReq accesses (Ratio)
board.cache_hierarchy.clusters.l1dcache.LoadLockedReq.missRate::total     0.119816                       # miss rate for LoadLockedReq accesses (Ratio)
board.cache_hierarchy.clusters.l1dcache.LoadLockedReq.avgMissLatency::processor.cores.core.data        16650                       # average LoadLockedReq miss latency ((Tick/Count))
board.cache_hierarchy.clusters.l1dcache.LoadLockedReq.avgMissLatency::total        16650                       # average LoadLockedReq miss latency ((Tick/Count))
board.cache_hierarchy.clusters.l1dcache.LoadLockedReq.mshrHits::processor.cores.core.data           38                       # number of LoadLockedReq MSHR hits (Count)
board.cache_hierarchy.clusters.l1dcache.LoadLockedReq.mshrHits::total           38                       # number of LoadLockedReq MSHR hits (Count)
board.cache_hierarchy.clusters.l1dcache.LoadLockedReq.mshrMisses::processor.cores.core.data           14                       # number of LoadLockedReq MSHR misses (Count)
board.cache_hierarchy.clusters.l1dcache.LoadLockedReq.mshrMisses::total           14                       # number of LoadLockedReq MSHR misses (Count)
board.cache_hierarchy.clusters.l1dcache.LoadLockedReq.mshrMissLatency::processor.cores.core.data       334332                       # number of LoadLockedReq MSHR miss ticks (Tick)
board.cache_hierarchy.clusters.l1dcache.LoadLockedReq.mshrMissLatency::total       334332                       # number of LoadLockedReq MSHR miss ticks (Tick)
board.cache_hierarchy.clusters.l1dcache.LoadLockedReq.mshrMissRate::processor.cores.core.data     0.032258                       # mshr miss rate for LoadLockedReq accesses (Ratio)
board.cache_hierarchy.clusters.l1dcache.LoadLockedReq.mshrMissRate::total     0.032258                       # mshr miss rate for LoadLockedReq accesses (Ratio)
board.cache_hierarchy.clusters.l1dcache.LoadLockedReq.avgMshrMissLatency::processor.cores.core.data 23880.857143                       # average LoadLockedReq mshr miss latency ((Tick/Count))
board.cache_hierarchy.clusters.l1dcache.LoadLockedReq.avgMshrMissLatency::total 23880.857143                       # average LoadLockedReq mshr miss latency ((Tick/Count))
board.cache_hierarchy.clusters.l1dcache.ReadReq.hits::processor.cores.core.data     15753299                       # number of ReadReq hits (Count)
board.cache_hierarchy.clusters.l1dcache.ReadReq.hits::total     15753299                       # number of ReadReq hits (Count)
board.cache_hierarchy.clusters.l1dcache.ReadReq.misses::processor.cores.core.data       314195                       # number of ReadReq misses (Count)
board.cache_hierarchy.clusters.l1dcache.ReadReq.misses::total       314195                       # number of ReadReq misses (Count)
board.cache_hierarchy.clusters.l1dcache.ReadReq.missLatency::processor.cores.core.data   1565333433                       # number of ReadReq miss ticks (Tick)
board.cache_hierarchy.clusters.l1dcache.ReadReq.missLatency::total   1565333433                       # number of ReadReq miss ticks (Tick)
board.cache_hierarchy.clusters.l1dcache.ReadReq.accesses::processor.cores.core.data     16067494                       # number of ReadReq accesses(hits+misses) (Count)
board.cache_hierarchy.clusters.l1dcache.ReadReq.accesses::total     16067494                       # number of ReadReq accesses(hits+misses) (Count)
board.cache_hierarchy.clusters.l1dcache.ReadReq.missRate::processor.cores.core.data     0.019555                       # miss rate for ReadReq accesses (Ratio)
board.cache_hierarchy.clusters.l1dcache.ReadReq.missRate::total     0.019555                       # miss rate for ReadReq accesses (Ratio)
board.cache_hierarchy.clusters.l1dcache.ReadReq.avgMissLatency::processor.cores.core.data  4982.044377                       # average ReadReq miss latency ((Tick/Count))
board.cache_hierarchy.clusters.l1dcache.ReadReq.avgMissLatency::total  4982.044377                       # average ReadReq miss latency ((Tick/Count))
board.cache_hierarchy.clusters.l1dcache.ReadReq.mshrHits::processor.cores.core.data       267429                       # number of ReadReq MSHR hits (Count)
board.cache_hierarchy.clusters.l1dcache.ReadReq.mshrHits::total       267429                       # number of ReadReq MSHR hits (Count)
board.cache_hierarchy.clusters.l1dcache.ReadReq.mshrMisses::processor.cores.core.data        46766                       # number of ReadReq MSHR misses (Count)
board.cache_hierarchy.clusters.l1dcache.ReadReq.mshrMisses::total        46766                       # number of ReadReq MSHR misses (Count)
board.cache_hierarchy.clusters.l1dcache.ReadReq.mshrMissLatency::processor.cores.core.data    309518838                       # number of ReadReq MSHR miss ticks (Tick)
board.cache_hierarchy.clusters.l1dcache.ReadReq.mshrMissLatency::total    309518838                       # number of ReadReq MSHR miss ticks (Tick)
board.cache_hierarchy.clusters.l1dcache.ReadReq.mshrMissRate::processor.cores.core.data     0.002911                       # mshr miss rate for ReadReq accesses (Ratio)
board.cache_hierarchy.clusters.l1dcache.ReadReq.mshrMissRate::total     0.002911                       # mshr miss rate for ReadReq accesses (Ratio)
board.cache_hierarchy.clusters.l1dcache.ReadReq.avgMshrMissLatency::processor.cores.core.data  6618.458667                       # average ReadReq mshr miss latency ((Tick/Count))
board.cache_hierarchy.clusters.l1dcache.ReadReq.avgMshrMissLatency::total  6618.458667                       # average ReadReq mshr miss latency ((Tick/Count))
board.cache_hierarchy.clusters.l1dcache.StoreCondReq.hits::processor.cores.core.data          307                       # number of StoreCondReq hits (Count)
board.cache_hierarchy.clusters.l1dcache.StoreCondReq.hits::total          307                       # number of StoreCondReq hits (Count)
board.cache_hierarchy.clusters.l1dcache.StoreCondReq.misses::processor.cores.core.data           48                       # number of StoreCondReq misses (Count)
board.cache_hierarchy.clusters.l1dcache.StoreCondReq.misses::total           48                       # number of StoreCondReq misses (Count)
board.cache_hierarchy.clusters.l1dcache.StoreCondReq.missLatency::processor.cores.core.data       232434                       # number of StoreCondReq miss ticks (Tick)
board.cache_hierarchy.clusters.l1dcache.StoreCondReq.missLatency::total       232434                       # number of StoreCondReq miss ticks (Tick)
board.cache_hierarchy.clusters.l1dcache.StoreCondReq.accesses::processor.cores.core.data          355                       # number of StoreCondReq accesses(hits+misses) (Count)
board.cache_hierarchy.clusters.l1dcache.StoreCondReq.accesses::total          355                       # number of StoreCondReq accesses(hits+misses) (Count)
board.cache_hierarchy.clusters.l1dcache.StoreCondReq.missRate::processor.cores.core.data     0.135211                       # miss rate for StoreCondReq accesses (Ratio)
board.cache_hierarchy.clusters.l1dcache.StoreCondReq.missRate::total     0.135211                       # miss rate for StoreCondReq accesses (Ratio)
board.cache_hierarchy.clusters.l1dcache.StoreCondReq.avgMissLatency::processor.cores.core.data  4842.375000                       # average StoreCondReq miss latency ((Tick/Count))
board.cache_hierarchy.clusters.l1dcache.StoreCondReq.avgMissLatency::total  4842.375000                       # average StoreCondReq miss latency ((Tick/Count))
board.cache_hierarchy.clusters.l1dcache.StoreCondReq.mshrMisses::processor.cores.core.data           48                       # number of StoreCondReq MSHR misses (Count)
board.cache_hierarchy.clusters.l1dcache.StoreCondReq.mshrMisses::total           48                       # number of StoreCondReq MSHR misses (Count)
board.cache_hierarchy.clusters.l1dcache.StoreCondReq.mshrMissLatency::processor.cores.core.data       216450                       # number of StoreCondReq MSHR miss ticks (Tick)
board.cache_hierarchy.clusters.l1dcache.StoreCondReq.mshrMissLatency::total       216450                       # number of StoreCondReq MSHR miss ticks (Tick)
board.cache_hierarchy.clusters.l1dcache.StoreCondReq.mshrMissRate::processor.cores.core.data     0.135211                       # mshr miss rate for StoreCondReq accesses (Ratio)
board.cache_hierarchy.clusters.l1dcache.StoreCondReq.mshrMissRate::total     0.135211                       # mshr miss rate for StoreCondReq accesses (Ratio)
board.cache_hierarchy.clusters.l1dcache.StoreCondReq.avgMshrMissLatency::processor.cores.core.data  4509.375000                       # average StoreCondReq mshr miss latency ((Tick/Count))
board.cache_hierarchy.clusters.l1dcache.StoreCondReq.avgMshrMissLatency::total  4509.375000                       # average StoreCondReq mshr miss latency ((Tick/Count))
board.cache_hierarchy.clusters.l1dcache.SwapReq.hits::processor.cores.core.data        65960                       # number of SwapReq hits (Count)
board.cache_hierarchy.clusters.l1dcache.SwapReq.hits::total        65960                       # number of SwapReq hits (Count)
board.cache_hierarchy.clusters.l1dcache.SwapReq.misses::processor.cores.core.data          848                       # number of SwapReq misses (Count)
board.cache_hierarchy.clusters.l1dcache.SwapReq.misses::total          848                       # number of SwapReq misses (Count)
board.cache_hierarchy.clusters.l1dcache.SwapReq.missLatency::processor.cores.core.data      4081248                       # number of SwapReq miss ticks (Tick)
board.cache_hierarchy.clusters.l1dcache.SwapReq.missLatency::total      4081248                       # number of SwapReq miss ticks (Tick)
board.cache_hierarchy.clusters.l1dcache.SwapReq.accesses::processor.cores.core.data        66808                       # number of SwapReq accesses(hits+misses) (Count)
board.cache_hierarchy.clusters.l1dcache.SwapReq.accesses::total        66808                       # number of SwapReq accesses(hits+misses) (Count)
board.cache_hierarchy.clusters.l1dcache.SwapReq.missRate::processor.cores.core.data     0.012693                       # miss rate for SwapReq accesses (Ratio)
board.cache_hierarchy.clusters.l1dcache.SwapReq.missRate::total     0.012693                       # miss rate for SwapReq accesses (Ratio)
board.cache_hierarchy.clusters.l1dcache.SwapReq.avgMissLatency::processor.cores.core.data  4812.792453                       # average SwapReq miss latency ((Tick/Count))
board.cache_hierarchy.clusters.l1dcache.SwapReq.avgMissLatency::total  4812.792453                       # average SwapReq miss latency ((Tick/Count))
board.cache_hierarchy.clusters.l1dcache.SwapReq.mshrMisses::processor.cores.core.data          848                       # number of SwapReq MSHR misses (Count)
board.cache_hierarchy.clusters.l1dcache.SwapReq.mshrMisses::total          848                       # number of SwapReq MSHR misses (Count)
board.cache_hierarchy.clusters.l1dcache.SwapReq.mshrMissLatency::processor.cores.core.data      3798864                       # number of SwapReq MSHR miss ticks (Tick)
board.cache_hierarchy.clusters.l1dcache.SwapReq.mshrMissLatency::total      3798864                       # number of SwapReq MSHR miss ticks (Tick)
board.cache_hierarchy.clusters.l1dcache.SwapReq.mshrMissRate::processor.cores.core.data     0.012693                       # mshr miss rate for SwapReq accesses (Ratio)
board.cache_hierarchy.clusters.l1dcache.SwapReq.mshrMissRate::total     0.012693                       # mshr miss rate for SwapReq accesses (Ratio)
board.cache_hierarchy.clusters.l1dcache.SwapReq.avgMshrMissLatency::processor.cores.core.data  4479.792453                       # average SwapReq mshr miss latency ((Tick/Count))
board.cache_hierarchy.clusters.l1dcache.SwapReq.avgMshrMissLatency::total  4479.792453                       # average SwapReq mshr miss latency ((Tick/Count))
board.cache_hierarchy.clusters.l1dcache.WriteReq.hits::processor.cores.core.data      2675445                       # number of WriteReq hits (Count)
board.cache_hierarchy.clusters.l1dcache.WriteReq.hits::total      2675445                       # number of WriteReq hits (Count)
board.cache_hierarchy.clusters.l1dcache.WriteReq.misses::processor.cores.core.data        98224                       # number of WriteReq misses (Count)
board.cache_hierarchy.clusters.l1dcache.WriteReq.misses::total        98224                       # number of WriteReq misses (Count)
board.cache_hierarchy.clusters.l1dcache.WriteReq.missLatency::processor.cores.core.data   1267299099                       # number of WriteReq miss ticks (Tick)
board.cache_hierarchy.clusters.l1dcache.WriteReq.missLatency::total   1267299099                       # number of WriteReq miss ticks (Tick)
board.cache_hierarchy.clusters.l1dcache.WriteReq.accesses::processor.cores.core.data      2773669                       # number of WriteReq accesses(hits+misses) (Count)
board.cache_hierarchy.clusters.l1dcache.WriteReq.accesses::total      2773669                       # number of WriteReq accesses(hits+misses) (Count)
board.cache_hierarchy.clusters.l1dcache.WriteReq.missRate::processor.cores.core.data     0.035413                       # miss rate for WriteReq accesses (Ratio)
board.cache_hierarchy.clusters.l1dcache.WriteReq.missRate::total     0.035413                       # miss rate for WriteReq accesses (Ratio)
board.cache_hierarchy.clusters.l1dcache.WriteReq.avgMissLatency::processor.cores.core.data 12902.132870                       # average WriteReq miss latency ((Tick/Count))
board.cache_hierarchy.clusters.l1dcache.WriteReq.avgMissLatency::total 12902.132870                       # average WriteReq miss latency ((Tick/Count))
board.cache_hierarchy.clusters.l1dcache.WriteReq.mshrHits::processor.cores.core.data        72108                       # number of WriteReq MSHR hits (Count)
board.cache_hierarchy.clusters.l1dcache.WriteReq.mshrHits::total        72108                       # number of WriteReq MSHR hits (Count)
board.cache_hierarchy.clusters.l1dcache.WriteReq.mshrMisses::processor.cores.core.data        26116                       # number of WriteReq MSHR misses (Count)
board.cache_hierarchy.clusters.l1dcache.WriteReq.mshrMisses::total        26116                       # number of WriteReq MSHR misses (Count)
board.cache_hierarchy.clusters.l1dcache.WriteReq.mshrMissLatency::processor.cores.core.data    368837460                       # number of WriteReq MSHR miss ticks (Tick)
board.cache_hierarchy.clusters.l1dcache.WriteReq.mshrMissLatency::total    368837460                       # number of WriteReq MSHR miss ticks (Tick)
board.cache_hierarchy.clusters.l1dcache.WriteReq.mshrMissRate::processor.cores.core.data     0.009416                       # mshr miss rate for WriteReq accesses (Ratio)
board.cache_hierarchy.clusters.l1dcache.WriteReq.mshrMissRate::total     0.009416                       # mshr miss rate for WriteReq accesses (Ratio)
board.cache_hierarchy.clusters.l1dcache.WriteReq.avgMshrMissLatency::processor.cores.core.data 14123.045643                       # average WriteReq mshr miss latency ((Tick/Count))
board.cache_hierarchy.clusters.l1dcache.WriteReq.avgMshrMissLatency::total 14123.045643                       # average WriteReq mshr miss latency ((Tick/Count))
board.cache_hierarchy.clusters.l1dcache.power_state.pwrStateResidencyTicks::UNDEFINED  13863090699                       # Cumulative time (in ticks) in various power states (Tick)
board.cache_hierarchy.clusters.l1dcache.prefetcher.demandMshrMisses        72882                       # demands not covered by prefetchs (Count)
board.cache_hierarchy.clusters.l1dcache.prefetcher.pfIssued       905148                       # number of hwpf issued (Count)
board.cache_hierarchy.clusters.l1dcache.prefetcher.pfUnused        55959                       # number of HardPF blocks evicted w/o reference (Count)
board.cache_hierarchy.clusters.l1dcache.prefetcher.pfUseful       100995                       # number of useful prefetch (Count)
board.cache_hierarchy.clusters.l1dcache.prefetcher.pfUsefulButMiss        31194                       # number of hit on prefetch but cache block is not in an usable state (Count)
board.cache_hierarchy.clusters.l1dcache.prefetcher.accuracy     0.111578                       # accuracy of the prefetcher (Count)
board.cache_hierarchy.clusters.l1dcache.prefetcher.coverage     0.580842                       # coverage brought by this prefetcher (Count)
board.cache_hierarchy.clusters.l1dcache.prefetcher.pfHitInCache       418264                       # number of prefetches hitting in cache (Count)
board.cache_hierarchy.clusters.l1dcache.prefetcher.pfHitInMSHR       352059                       # number of prefetches hitting in a MSHR (Count)
board.cache_hierarchy.clusters.l1dcache.prefetcher.pfHitInWB            0                       # number of prefetches hit in the Write Buffer (Count)
board.cache_hierarchy.clusters.l1dcache.prefetcher.pfLate       770323                       # number of late prefetches (hitting in cache, MSHR or WB) (Count)
board.cache_hierarchy.clusters.l1dcache.prefetcher.pfIdentified      1139427                       # number of prefetch candidates identified (Count)
board.cache_hierarchy.clusters.l1dcache.prefetcher.pfBufferHit       189006                       # number of redundant prefetches already in prefetch queue (Count)
board.cache_hierarchy.clusters.l1dcache.prefetcher.pfInCache            0                       # number of redundant prefetches already in cache/mshr dropped (Count)
board.cache_hierarchy.clusters.l1dcache.prefetcher.pfRemovedDemand         2504                       # number of prefetches dropped due to a demand for the same address (Count)
board.cache_hierarchy.clusters.l1dcache.prefetcher.pfRemovedFull            0                       # number of prefetches dropped due to prefetch queue size (Count)
board.cache_hierarchy.clusters.l1dcache.prefetcher.pfSpanPage       178685                       # number of prefetches that crossed the page (Count)
board.cache_hierarchy.clusters.l1dcache.prefetcher.pfUsefulSpanPage        28545                       # number of prefetches that is useful and crossed the page (Count)
board.cache_hierarchy.clusters.l1dcache.prefetcher.power_state.pwrStateResidencyTicks::UNDEFINED  13863090699                       # Cumulative time (in ticks) in various power states (Tick)
board.cache_hierarchy.clusters.l1dcache.tags.tagsInUse   511.185533                       # Average ticks per tags in use ((Tick/Count))
board.cache_hierarchy.clusters.l1dcache.tags.totalRefs     18736746                       # Total number of references to valid blocks. (Count)
board.cache_hierarchy.clusters.l1dcache.tags.sampledRefs       198723                       # Sample count of references to valid blocks. (Count)
board.cache_hierarchy.clusters.l1dcache.tags.avgRefs    94.285744                       # Average number of references to valid blocks. ((Count/Count))
board.cache_hierarchy.clusters.l1dcache.tags.warmupTick       216117                       # The tick when the warmup percentage was hit. (Tick)
board.cache_hierarchy.clusters.l1dcache.tags.occupancies::cache_hierarchy.clusters.l1dcache.prefetcher   292.727512                       # Average occupied blocks per tick, per requestor ((Count/Tick))
board.cache_hierarchy.clusters.l1dcache.tags.occupancies::processor.cores.core.data   218.458021                       # Average occupied blocks per tick, per requestor ((Count/Tick))
board.cache_hierarchy.clusters.l1dcache.tags.avgOccs::cache_hierarchy.clusters.l1dcache.prefetcher     0.571733                       # Average percentage of cache occupancy ((Ratio/Tick))
board.cache_hierarchy.clusters.l1dcache.tags.avgOccs::processor.cores.core.data     0.426676                       # Average percentage of cache occupancy ((Ratio/Tick))
board.cache_hierarchy.clusters.l1dcache.tags.avgOccs::total     0.998409                       # Average percentage of cache occupancy ((Ratio/Tick))
board.cache_hierarchy.clusters.l1dcache.tags.occupanciesTaskId::1022          223                       # Occupied blocks per task id (Count)
board.cache_hierarchy.clusters.l1dcache.tags.occupanciesTaskId::1024          289                       # Occupied blocks per task id (Count)
board.cache_hierarchy.clusters.l1dcache.tags.ageTaskId_1022::0          110                       # Occupied blocks per task id, per block age (Count)
board.cache_hierarchy.clusters.l1dcache.tags.ageTaskId_1022::1          112                       # Occupied blocks per task id, per block age (Count)
board.cache_hierarchy.clusters.l1dcache.tags.ageTaskId_1022::2            1                       # Occupied blocks per task id, per block age (Count)
board.cache_hierarchy.clusters.l1dcache.tags.ageTaskId_1024::0          219                       # Occupied blocks per task id, per block age (Count)
board.cache_hierarchy.clusters.l1dcache.tags.ageTaskId_1024::1           62                       # Occupied blocks per task id, per block age (Count)
board.cache_hierarchy.clusters.l1dcache.tags.ageTaskId_1024::2            8                       # Occupied blocks per task id, per block age (Count)
board.cache_hierarchy.clusters.l1dcache.tags.ratioOccsTaskId::1022     0.435547                       # Ratio of occupied blocks and all blocks, per task id (Ratio)
board.cache_hierarchy.clusters.l1dcache.tags.ratioOccsTaskId::1024     0.564453                       # Ratio of occupied blocks and all blocks, per task id (Ratio)
board.cache_hierarchy.clusters.l1dcache.tags.tagAccesses    151468803                       # Number of tag accesses (Count)
board.cache_hierarchy.clusters.l1dcache.tags.dataAccesses    151468803                       # Number of data accesses (Count)
board.cache_hierarchy.clusters.l1dcache.tags.power_state.pwrStateResidencyTicks::UNDEFINED  13863090699                       # Cumulative time (in ticks) in various power states (Tick)
board.cache_hierarchy.clusters.l1icache.demandHits::processor.cores.core.inst     22404398                       # number of demand (read+write) hits (Count)
board.cache_hierarchy.clusters.l1icache.demandHits::total     22404398                       # number of demand (read+write) hits (Count)
board.cache_hierarchy.clusters.l1icache.overallHits::processor.cores.core.inst     22404398                       # number of overall hits (Count)
board.cache_hierarchy.clusters.l1icache.overallHits::total     22404398                       # number of overall hits (Count)
board.cache_hierarchy.clusters.l1icache.demandMisses::processor.cores.core.inst         4480                       # number of demand (read+write) misses (Count)
board.cache_hierarchy.clusters.l1icache.demandMisses::total         4480                       # number of demand (read+write) misses (Count)
board.cache_hierarchy.clusters.l1icache.overallMisses::processor.cores.core.inst         4480                       # number of overall misses (Count)
board.cache_hierarchy.clusters.l1icache.overallMisses::total         4480                       # number of overall misses (Count)
board.cache_hierarchy.clusters.l1icache.demandMissLatency::processor.cores.core.inst    199800000                       # number of demand (read+write) miss ticks (Tick)
board.cache_hierarchy.clusters.l1icache.demandMissLatency::total    199800000                       # number of demand (read+write) miss ticks (Tick)
board.cache_hierarchy.clusters.l1icache.overallMissLatency::processor.cores.core.inst    199800000                       # number of overall miss ticks (Tick)
board.cache_hierarchy.clusters.l1icache.overallMissLatency::total    199800000                       # number of overall miss ticks (Tick)
board.cache_hierarchy.clusters.l1icache.demandAccesses::processor.cores.core.inst     22408878                       # number of demand (read+write) accesses (Count)
board.cache_hierarchy.clusters.l1icache.demandAccesses::total     22408878                       # number of demand (read+write) accesses (Count)
board.cache_hierarchy.clusters.l1icache.overallAccesses::processor.cores.core.inst     22408878                       # number of overall (read+write) accesses (Count)
board.cache_hierarchy.clusters.l1icache.overallAccesses::total     22408878                       # number of overall (read+write) accesses (Count)
board.cache_hierarchy.clusters.l1icache.demandMissRate::processor.cores.core.inst     0.000200                       # miss rate for demand accesses (Ratio)
board.cache_hierarchy.clusters.l1icache.demandMissRate::total     0.000200                       # miss rate for demand accesses (Ratio)
board.cache_hierarchy.clusters.l1icache.overallMissRate::processor.cores.core.inst     0.000200                       # miss rate for overall accesses (Ratio)
board.cache_hierarchy.clusters.l1icache.overallMissRate::total     0.000200                       # miss rate for overall accesses (Ratio)
board.cache_hierarchy.clusters.l1icache.demandAvgMissLatency::processor.cores.core.inst 44598.214286                       # average overall miss latency in ticks ((Tick/Count))
board.cache_hierarchy.clusters.l1icache.demandAvgMissLatency::total 44598.214286                       # average overall miss latency in ticks ((Tick/Count))
board.cache_hierarchy.clusters.l1icache.overallAvgMissLatency::processor.cores.core.inst 44598.214286                       # average overall miss latency ((Tick/Count))
board.cache_hierarchy.clusters.l1icache.overallAvgMissLatency::total 44598.214286                       # average overall miss latency ((Tick/Count))
board.cache_hierarchy.clusters.l1icache.blockedCycles::no_mshrs            0                       # number of cycles access was blocked (Cycle)
board.cache_hierarchy.clusters.l1icache.blockedCycles::no_targets            0                       # number of cycles access was blocked (Cycle)
board.cache_hierarchy.clusters.l1icache.blockedCauses::no_mshrs            0                       # number of times access was blocked (Count)
board.cache_hierarchy.clusters.l1icache.blockedCauses::no_targets            0                       # number of times access was blocked (Count)
board.cache_hierarchy.clusters.l1icache.avgBlocked::no_mshrs          nan                       # average number of cycles each access was blocked ((Cycle/Count))
board.cache_hierarchy.clusters.l1icache.avgBlocked::no_targets          nan                       # average number of cycles each access was blocked ((Cycle/Count))
board.cache_hierarchy.clusters.l1icache.writebacks::writebacks         2848                       # number of writebacks (Count)
board.cache_hierarchy.clusters.l1icache.writebacks::total         2848                       # number of writebacks (Count)
board.cache_hierarchy.clusters.l1icache.demandMshrHits::processor.cores.core.inst         1120                       # number of demand (read+write) MSHR hits (Count)
board.cache_hierarchy.clusters.l1icache.demandMshrHits::total         1120                       # number of demand (read+write) MSHR hits (Count)
board.cache_hierarchy.clusters.l1icache.overallMshrHits::processor.cores.core.inst         1120                       # number of overall MSHR hits (Count)
board.cache_hierarchy.clusters.l1icache.overallMshrHits::total         1120                       # number of overall MSHR hits (Count)
board.cache_hierarchy.clusters.l1icache.demandMshrMisses::processor.cores.core.inst         3360                       # number of demand (read+write) MSHR misses (Count)
board.cache_hierarchy.clusters.l1icache.demandMshrMisses::total         3360                       # number of demand (read+write) MSHR misses (Count)
board.cache_hierarchy.clusters.l1icache.overallMshrMisses::processor.cores.core.inst         3360                       # number of overall MSHR misses (Count)
board.cache_hierarchy.clusters.l1icache.overallMshrMisses::total         3360                       # number of overall MSHR misses (Count)
board.cache_hierarchy.clusters.l1icache.demandMshrMissLatency::processor.cores.core.inst    148405446                       # number of demand (read+write) MSHR miss ticks (Tick)
board.cache_hierarchy.clusters.l1icache.demandMshrMissLatency::total    148405446                       # number of demand (read+write) MSHR miss ticks (Tick)
board.cache_hierarchy.clusters.l1icache.overallMshrMissLatency::processor.cores.core.inst    148405446                       # number of overall MSHR miss ticks (Tick)
board.cache_hierarchy.clusters.l1icache.overallMshrMissLatency::total    148405446                       # number of overall MSHR miss ticks (Tick)
board.cache_hierarchy.clusters.l1icache.demandMshrMissRate::processor.cores.core.inst     0.000150                       # mshr miss ratio for demand accesses (Ratio)
board.cache_hierarchy.clusters.l1icache.demandMshrMissRate::total     0.000150                       # mshr miss ratio for demand accesses (Ratio)
board.cache_hierarchy.clusters.l1icache.overallMshrMissRate::processor.cores.core.inst     0.000150                       # mshr miss ratio for overall accesses (Ratio)
board.cache_hierarchy.clusters.l1icache.overallMshrMissRate::total     0.000150                       # mshr miss ratio for overall accesses (Ratio)
board.cache_hierarchy.clusters.l1icache.demandAvgMshrMissLatency::processor.cores.core.inst 44168.287500                       # average overall mshr miss latency ((Tick/Count))
board.cache_hierarchy.clusters.l1icache.demandAvgMshrMissLatency::total 44168.287500                       # average overall mshr miss latency ((Tick/Count))
board.cache_hierarchy.clusters.l1icache.overallAvgMshrMissLatency::processor.cores.core.inst 44168.287500                       # average overall mshr miss latency ((Tick/Count))
board.cache_hierarchy.clusters.l1icache.overallAvgMshrMissLatency::total 44168.287500                       # average overall mshr miss latency ((Tick/Count))
board.cache_hierarchy.clusters.l1icache.replacements         2848                       # number of replacements (Count)
board.cache_hierarchy.clusters.l1icache.ReadReq.hits::processor.cores.core.inst     22404398                       # number of ReadReq hits (Count)
board.cache_hierarchy.clusters.l1icache.ReadReq.hits::total     22404398                       # number of ReadReq hits (Count)
board.cache_hierarchy.clusters.l1icache.ReadReq.misses::processor.cores.core.inst         4480                       # number of ReadReq misses (Count)
board.cache_hierarchy.clusters.l1icache.ReadReq.misses::total         4480                       # number of ReadReq misses (Count)
board.cache_hierarchy.clusters.l1icache.ReadReq.missLatency::processor.cores.core.inst    199800000                       # number of ReadReq miss ticks (Tick)
board.cache_hierarchy.clusters.l1icache.ReadReq.missLatency::total    199800000                       # number of ReadReq miss ticks (Tick)
board.cache_hierarchy.clusters.l1icache.ReadReq.accesses::processor.cores.core.inst     22408878                       # number of ReadReq accesses(hits+misses) (Count)
board.cache_hierarchy.clusters.l1icache.ReadReq.accesses::total     22408878                       # number of ReadReq accesses(hits+misses) (Count)
board.cache_hierarchy.clusters.l1icache.ReadReq.missRate::processor.cores.core.inst     0.000200                       # miss rate for ReadReq accesses (Ratio)
board.cache_hierarchy.clusters.l1icache.ReadReq.missRate::total     0.000200                       # miss rate for ReadReq accesses (Ratio)
board.cache_hierarchy.clusters.l1icache.ReadReq.avgMissLatency::processor.cores.core.inst 44598.214286                       # average ReadReq miss latency ((Tick/Count))
board.cache_hierarchy.clusters.l1icache.ReadReq.avgMissLatency::total 44598.214286                       # average ReadReq miss latency ((Tick/Count))
board.cache_hierarchy.clusters.l1icache.ReadReq.mshrHits::processor.cores.core.inst         1120                       # number of ReadReq MSHR hits (Count)
board.cache_hierarchy.clusters.l1icache.ReadReq.mshrHits::total         1120                       # number of ReadReq MSHR hits (Count)
board.cache_hierarchy.clusters.l1icache.ReadReq.mshrMisses::processor.cores.core.inst         3360                       # number of ReadReq MSHR misses (Count)
board.cache_hierarchy.clusters.l1icache.ReadReq.mshrMisses::total         3360                       # number of ReadReq MSHR misses (Count)
board.cache_hierarchy.clusters.l1icache.ReadReq.mshrMissLatency::processor.cores.core.inst    148405446                       # number of ReadReq MSHR miss ticks (Tick)
board.cache_hierarchy.clusters.l1icache.ReadReq.mshrMissLatency::total    148405446                       # number of ReadReq MSHR miss ticks (Tick)
board.cache_hierarchy.clusters.l1icache.ReadReq.mshrMissRate::processor.cores.core.inst     0.000150                       # mshr miss rate for ReadReq accesses (Ratio)
board.cache_hierarchy.clusters.l1icache.ReadReq.mshrMissRate::total     0.000150                       # mshr miss rate for ReadReq accesses (Ratio)
board.cache_hierarchy.clusters.l1icache.ReadReq.avgMshrMissLatency::processor.cores.core.inst 44168.287500                       # average ReadReq mshr miss latency ((Tick/Count))
board.cache_hierarchy.clusters.l1icache.ReadReq.avgMshrMissLatency::total 44168.287500                       # average ReadReq mshr miss latency ((Tick/Count))
board.cache_hierarchy.clusters.l1icache.power_state.pwrStateResidencyTicks::UNDEFINED  13863090699                       # Cumulative time (in ticks) in various power states (Tick)
board.cache_hierarchy.clusters.l1icache.prefetcher.demandMshrMisses         3360                       # demands not covered by prefetchs (Count)
board.cache_hierarchy.clusters.l1icache.prefetcher.pfIssued            0                       # number of hwpf issued (Count)
board.cache_hierarchy.clusters.l1icache.prefetcher.pfUseful            0                       # number of useful prefetch (Count)
board.cache_hierarchy.clusters.l1icache.prefetcher.pfUsefulButMiss            0                       # number of hit on prefetch but cache block is not in an usable state (Count)
board.cache_hierarchy.clusters.l1icache.prefetcher.accuracy          nan                       # accuracy of the prefetcher (Count)
board.cache_hierarchy.clusters.l1icache.prefetcher.coverage            0                       # coverage brought by this prefetcher (Count)
board.cache_hierarchy.clusters.l1icache.prefetcher.pfHitInCache            0                       # number of prefetches hitting in cache (Count)
board.cache_hierarchy.clusters.l1icache.prefetcher.pfHitInMSHR            0                       # number of prefetches hitting in a MSHR (Count)
board.cache_hierarchy.clusters.l1icache.prefetcher.pfHitInWB            0                       # number of prefetches hit in the Write Buffer (Count)
board.cache_hierarchy.clusters.l1icache.prefetcher.pfLate            0                       # number of late prefetches (hitting in cache, MSHR or WB) (Count)
board.cache_hierarchy.clusters.l1icache.prefetcher.pfIdentified            0                       # number of prefetch candidates identified (Count)
board.cache_hierarchy.clusters.l1icache.prefetcher.pfBufferHit            0                       # number of redundant prefetches already in prefetch queue (Count)
board.cache_hierarchy.clusters.l1icache.prefetcher.pfInCache            0                       # number of redundant prefetches already in cache/mshr dropped (Count)
board.cache_hierarchy.clusters.l1icache.prefetcher.pfRemovedDemand            0                       # number of prefetches dropped due to a demand for the same address (Count)
board.cache_hierarchy.clusters.l1icache.prefetcher.pfRemovedFull            0                       # number of prefetches dropped due to prefetch queue size (Count)
board.cache_hierarchy.clusters.l1icache.prefetcher.pfSpanPage            0                       # number of prefetches that crossed the page (Count)
board.cache_hierarchy.clusters.l1icache.prefetcher.pfUsefulSpanPage            0                       # number of prefetches that is useful and crossed the page (Count)
board.cache_hierarchy.clusters.l1icache.prefetcher.power_state.pwrStateResidencyTicks::UNDEFINED  13863090699                       # Cumulative time (in ticks) in various power states (Tick)
board.cache_hierarchy.clusters.l1icache.tags.tagsInUse   511.340845                       # Average ticks per tags in use ((Tick/Count))
board.cache_hierarchy.clusters.l1icache.tags.totalRefs     22407758                       # Total number of references to valid blocks. (Count)
board.cache_hierarchy.clusters.l1icache.tags.sampledRefs         3360                       # Sample count of references to valid blocks. (Count)
board.cache_hierarchy.clusters.l1icache.tags.avgRefs  6668.975595                       # Average number of references to valid blocks. ((Count/Count))
board.cache_hierarchy.clusters.l1icache.tags.warmupTick        74592                       # The tick when the warmup percentage was hit. (Tick)
board.cache_hierarchy.clusters.l1icache.tags.occupancies::processor.cores.core.inst   511.340845                       # Average occupied blocks per tick, per requestor ((Count/Tick))
board.cache_hierarchy.clusters.l1icache.tags.avgOccs::processor.cores.core.inst     0.998713                       # Average percentage of cache occupancy ((Ratio/Tick))
board.cache_hierarchy.clusters.l1icache.tags.avgOccs::total     0.998713                       # Average percentage of cache occupancy ((Ratio/Tick))
board.cache_hierarchy.clusters.l1icache.tags.occupanciesTaskId::1024          512                       # Occupied blocks per task id (Count)
board.cache_hierarchy.clusters.l1icache.tags.ageTaskId_1024::0          100                       # Occupied blocks per task id, per block age (Count)
board.cache_hierarchy.clusters.l1icache.tags.ageTaskId_1024::2           78                       # Occupied blocks per task id, per block age (Count)
board.cache_hierarchy.clusters.l1icache.tags.ageTaskId_1024::3          117                       # Occupied blocks per task id, per block age (Count)
board.cache_hierarchy.clusters.l1icache.tags.ageTaskId_1024::4          217                       # Occupied blocks per task id, per block age (Count)
board.cache_hierarchy.clusters.l1icache.tags.ratioOccsTaskId::1024            1                       # Ratio of occupied blocks and all blocks, per task id (Ratio)
board.cache_hierarchy.clusters.l1icache.tags.tagAccesses    179274384                       # Number of tag accesses (Count)
board.cache_hierarchy.clusters.l1icache.tags.dataAccesses    179274384                       # Number of data accesses (Count)
board.cache_hierarchy.clusters.l1icache.tags.power_state.pwrStateResidencyTicks::UNDEFINED  13863090699                       # Cumulative time (in ticks) in various power states (Tick)
board.cache_hierarchy.clusters.l2_5_bus.transDist::ReadResp        84774                       # Transaction distribution (Count)
board.cache_hierarchy.clusters.l2_5_bus.transDist::WritebackDirty        93906                       # Transaction distribution (Count)
board.cache_hierarchy.clusters.l2_5_bus.transDist::CleanEvict        25136                       # Transaction distribution (Count)
board.cache_hierarchy.clusters.l2_5_bus.transDist::HardPFReq         5006                       # Transaction distribution (Count)
board.cache_hierarchy.clusters.l2_5_bus.transDist::UpgradeReq          583                       # Transaction distribution (Count)
board.cache_hierarchy.clusters.l2_5_bus.transDist::SCUpgradeReq            2                       # Transaction distribution (Count)
board.cache_hierarchy.clusters.l2_5_bus.transDist::UpgradeResp          585                       # Transaction distribution (Count)
board.cache_hierarchy.clusters.l2_5_bus.transDist::ReadExReq        10205                       # Transaction distribution (Count)
board.cache_hierarchy.clusters.l2_5_bus.transDist::ReadExResp        10205                       # Transaction distribution (Count)
board.cache_hierarchy.clusters.l2_5_bus.transDist::ReadSharedReq        84774                       # Transaction distribution (Count)
board.cache_hierarchy.clusters.l2_5_bus.transDist::InvalidateReq            9                       # Transaction distribution (Count)
board.cache_hierarchy.clusters.l2_5_bus.transDist::InvalidateResp            9                       # Transaction distribution (Count)
board.cache_hierarchy.clusters.l2_5_bus.pktCount_board.cache_hierarchy.clusters.l2cache.mem_side_port::board.cache_hierarchy.clusters.l2_5_cache.cpu_side_port       288359                       # Packet count per connected requestor and responder (Count)
board.cache_hierarchy.clusters.l2_5_bus.pktSize_board.cache_hierarchy.clusters.l2cache.mem_side_port::board.cache_hierarchy.clusters.l2_5_cache.cpu_side_port     11628608                       # Cumulative packet size per connected requestor and responder (Byte)
board.cache_hierarchy.clusters.l2_5_bus.snoops        26835                       # Total snoops (Count)
board.cache_hierarchy.clusters.l2_5_bus.snoopTraffic       460032                       # Total snoop traffic (Byte)
board.cache_hierarchy.clusters.l2_5_bus.snoopFanout::samples       122428                       # Request fanout histogram (Count)
board.cache_hierarchy.clusters.l2_5_bus.snoopFanout::mean     0.037810                       # Request fanout histogram (Count)
board.cache_hierarchy.clusters.l2_5_bus.snoopFanout::stdev     0.190737                       # Request fanout histogram (Count)
board.cache_hierarchy.clusters.l2_5_bus.snoopFanout::underflows            0      0.00%      0.00% # Request fanout histogram (Count)
board.cache_hierarchy.clusters.l2_5_bus.snoopFanout::0       117799     96.22%     96.22% # Request fanout histogram (Count)
board.cache_hierarchy.clusters.l2_5_bus.snoopFanout::1         4629      3.78%    100.00% # Request fanout histogram (Count)
board.cache_hierarchy.clusters.l2_5_bus.snoopFanout::overflows            0      0.00%    100.00% # Request fanout histogram (Count)
board.cache_hierarchy.clusters.l2_5_bus.snoopFanout::min_value            0                       # Request fanout histogram (Count)
board.cache_hierarchy.clusters.l2_5_bus.snoopFanout::max_value            1                       # Request fanout histogram (Count)
board.cache_hierarchy.clusters.l2_5_bus.snoopFanout::total       122428                       # Request fanout histogram (Count)
board.cache_hierarchy.clusters.l2_5_bus.power_state.pwrStateResidencyTicks::UNDEFINED  13863090699                       # Cumulative time (in ticks) in various power states (Tick)
board.cache_hierarchy.clusters.l2_5_bus.reqLayer0.occupancy    131421493                       # Layer occupancy (ticks) (Tick)
board.cache_hierarchy.clusters.l2_5_bus.reqLayer0.utilization          0.0                       # Layer utilization (Ratio)
board.cache_hierarchy.clusters.l2_5_bus.respLayer0.occupancy     95081823                       # Layer occupancy (ticks) (Tick)
board.cache_hierarchy.clusters.l2_5_bus.respLayer0.utilization          0.0                       # Layer utilization (Ratio)
board.cache_hierarchy.clusters.l2_5_bus.snoop_filter.totRequests       192814                       # Total number of requests made to the snoop filter. (Count)
board.cache_hierarchy.clusters.l2_5_bus.snoop_filter.hitSingleRequests        97807                       # Number of requests hitting in the snoop filter with a single holder of the requested data. (Count)
board.cache_hierarchy.clusters.l2_5_bus.snoop_filter.hitMultiRequests            0                       # Number of requests hitting in the snoop filter with multiple (>1) holders of the requested data. (Count)
board.cache_hierarchy.clusters.l2_5_bus.snoop_filter.totSnoops         4629                       # Total number of snoops made to the snoop filter. (Count)
board.cache_hierarchy.clusters.l2_5_bus.snoop_filter.hitSingleSnoops         4629                       # Number of snoops hitting in the snoop filter with a single holder of the requested data. (Count)
board.cache_hierarchy.clusters.l2_5_bus.snoop_filter.hitMultiSnoops            0                       # Number of snoops hitting in the snoop filter with multiple (>1) holders of the requested data. (Count)
board.cache_hierarchy.clusters.l2_5_cache.demandHits::cache_hierarchy.clusters.l1dcache.prefetcher        23319                       # number of demand (read+write) hits (Count)
board.cache_hierarchy.clusters.l2_5_cache.demandHits::cache_hierarchy.clusters.l2cache.prefetcher        40292                       # number of demand (read+write) hits (Count)
board.cache_hierarchy.clusters.l2_5_cache.demandHits::processor.cores.core.inst          518                       # number of demand (read+write) hits (Count)
board.cache_hierarchy.clusters.l2_5_cache.demandHits::processor.cores.core.data        19775                       # number of demand (read+write) hits (Count)
board.cache_hierarchy.clusters.l2_5_cache.demandHits::total        83904                       # number of demand (read+write) hits (Count)
board.cache_hierarchy.clusters.l2_5_cache.overallHits::cache_hierarchy.clusters.l1dcache.prefetcher        23319                       # number of overall hits (Count)
board.cache_hierarchy.clusters.l2_5_cache.overallHits::cache_hierarchy.clusters.l2cache.prefetcher        40292                       # number of overall hits (Count)
board.cache_hierarchy.clusters.l2_5_cache.overallHits::processor.cores.core.inst          518                       # number of overall hits (Count)
board.cache_hierarchy.clusters.l2_5_cache.overallHits::processor.cores.core.data        19775                       # number of overall hits (Count)
board.cache_hierarchy.clusters.l2_5_cache.overallHits::total        83904                       # number of overall hits (Count)
board.cache_hierarchy.clusters.l2_5_cache.demandMisses::cache_hierarchy.clusters.l1dcache.prefetcher         2158                       # number of demand (read+write) misses (Count)
board.cache_hierarchy.clusters.l2_5_cache.demandMisses::cache_hierarchy.clusters.l2cache.prefetcher         3138                       # number of demand (read+write) misses (Count)
board.cache_hierarchy.clusters.l2_5_cache.demandMisses::processor.cores.core.inst         2008                       # number of demand (read+write) misses (Count)
board.cache_hierarchy.clusters.l2_5_cache.demandMisses::processor.cores.core.data         3771                       # number of demand (read+write) misses (Count)
board.cache_hierarchy.clusters.l2_5_cache.demandMisses::total        11075                       # number of demand (read+write) misses (Count)
board.cache_hierarchy.clusters.l2_5_cache.overallMisses::cache_hierarchy.clusters.l1dcache.prefetcher         2158                       # number of overall misses (Count)
board.cache_hierarchy.clusters.l2_5_cache.overallMisses::cache_hierarchy.clusters.l2cache.prefetcher         3138                       # number of overall misses (Count)
board.cache_hierarchy.clusters.l2_5_cache.overallMisses::processor.cores.core.inst         2008                       # number of overall misses (Count)
board.cache_hierarchy.clusters.l2_5_cache.overallMisses::processor.cores.core.data         3771                       # number of overall misses (Count)
board.cache_hierarchy.clusters.l2_5_cache.overallMisses::total        11075                       # number of overall misses (Count)
board.cache_hierarchy.clusters.l2_5_cache.demandMissLatency::cache_hierarchy.clusters.l1dcache.prefetcher    182822193                       # number of demand (read+write) miss ticks (Tick)
board.cache_hierarchy.clusters.l2_5_cache.demandMissLatency::cache_hierarchy.clusters.l2cache.prefetcher    174670382                       # number of demand (read+write) miss ticks (Tick)
board.cache_hierarchy.clusters.l2_5_cache.demandMissLatency::processor.cores.core.inst    129449085                       # number of demand (read+write) miss ticks (Tick)
board.cache_hierarchy.clusters.l2_5_cache.demandMissLatency::processor.cores.core.data    246964455                       # number of demand (read+write) miss ticks (Tick)
board.cache_hierarchy.clusters.l2_5_cache.demandMissLatency::total    733906115                       # number of demand (read+write) miss ticks (Tick)
board.cache_hierarchy.clusters.l2_5_cache.overallMissLatency::cache_hierarchy.clusters.l1dcache.prefetcher    182822193                       # number of overall miss ticks (Tick)
board.cache_hierarchy.clusters.l2_5_cache.overallMissLatency::cache_hierarchy.clusters.l2cache.prefetcher    174670382                       # number of overall miss ticks (Tick)
board.cache_hierarchy.clusters.l2_5_cache.overallMissLatency::processor.cores.core.inst    129449085                       # number of overall miss ticks (Tick)
board.cache_hierarchy.clusters.l2_5_cache.overallMissLatency::processor.cores.core.data    246964455                       # number of overall miss ticks (Tick)
board.cache_hierarchy.clusters.l2_5_cache.overallMissLatency::total    733906115                       # number of overall miss ticks (Tick)
board.cache_hierarchy.clusters.l2_5_cache.demandAccesses::cache_hierarchy.clusters.l1dcache.prefetcher        25477                       # number of demand (read+write) accesses (Count)
board.cache_hierarchy.clusters.l2_5_cache.demandAccesses::cache_hierarchy.clusters.l2cache.prefetcher        43430                       # number of demand (read+write) accesses (Count)
board.cache_hierarchy.clusters.l2_5_cache.demandAccesses::processor.cores.core.inst         2526                       # number of demand (read+write) accesses (Count)
board.cache_hierarchy.clusters.l2_5_cache.demandAccesses::processor.cores.core.data        23546                       # number of demand (read+write) accesses (Count)
board.cache_hierarchy.clusters.l2_5_cache.demandAccesses::total        94979                       # number of demand (read+write) accesses (Count)
board.cache_hierarchy.clusters.l2_5_cache.overallAccesses::cache_hierarchy.clusters.l1dcache.prefetcher        25477                       # number of overall (read+write) accesses (Count)
board.cache_hierarchy.clusters.l2_5_cache.overallAccesses::cache_hierarchy.clusters.l2cache.prefetcher        43430                       # number of overall (read+write) accesses (Count)
board.cache_hierarchy.clusters.l2_5_cache.overallAccesses::processor.cores.core.inst         2526                       # number of overall (read+write) accesses (Count)
board.cache_hierarchy.clusters.l2_5_cache.overallAccesses::processor.cores.core.data        23546                       # number of overall (read+write) accesses (Count)
board.cache_hierarchy.clusters.l2_5_cache.overallAccesses::total        94979                       # number of overall (read+write) accesses (Count)
board.cache_hierarchy.clusters.l2_5_cache.demandMissRate::cache_hierarchy.clusters.l1dcache.prefetcher     0.084704                       # miss rate for demand accesses (Ratio)
board.cache_hierarchy.clusters.l2_5_cache.demandMissRate::cache_hierarchy.clusters.l2cache.prefetcher     0.072254                       # miss rate for demand accesses (Ratio)
board.cache_hierarchy.clusters.l2_5_cache.demandMissRate::processor.cores.core.inst     0.794933                       # miss rate for demand accesses (Ratio)
board.cache_hierarchy.clusters.l2_5_cache.demandMissRate::processor.cores.core.data     0.160155                       # miss rate for demand accesses (Ratio)
board.cache_hierarchy.clusters.l2_5_cache.demandMissRate::total     0.116605                       # miss rate for demand accesses (Ratio)
board.cache_hierarchy.clusters.l2_5_cache.overallMissRate::cache_hierarchy.clusters.l1dcache.prefetcher     0.084704                       # miss rate for overall accesses (Ratio)
board.cache_hierarchy.clusters.l2_5_cache.overallMissRate::cache_hierarchy.clusters.l2cache.prefetcher     0.072254                       # miss rate for overall accesses (Ratio)
board.cache_hierarchy.clusters.l2_5_cache.overallMissRate::processor.cores.core.inst     0.794933                       # miss rate for overall accesses (Ratio)
board.cache_hierarchy.clusters.l2_5_cache.overallMissRate::processor.cores.core.data     0.160155                       # miss rate for overall accesses (Ratio)
board.cache_hierarchy.clusters.l2_5_cache.overallMissRate::total     0.116605                       # miss rate for overall accesses (Ratio)
board.cache_hierarchy.clusters.l2_5_cache.demandAvgMissLatency::cache_hierarchy.clusters.l1dcache.prefetcher 84718.347081                       # average overall miss latency in ticks ((Tick/Count))
board.cache_hierarchy.clusters.l2_5_cache.demandAvgMissLatency::cache_hierarchy.clusters.l2cache.prefetcher 55662.964308                       # average overall miss latency in ticks ((Tick/Count))
board.cache_hierarchy.clusters.l2_5_cache.demandAvgMissLatency::processor.cores.core.inst 64466.675797                       # average overall miss latency in ticks ((Tick/Count))
board.cache_hierarchy.clusters.l2_5_cache.demandAvgMissLatency::processor.cores.core.data 65490.441527                       # average overall miss latency in ticks ((Tick/Count))
board.cache_hierarchy.clusters.l2_5_cache.demandAvgMissLatency::total 66266.917833                       # average overall miss latency in ticks ((Tick/Count))
board.cache_hierarchy.clusters.l2_5_cache.overallAvgMissLatency::cache_hierarchy.clusters.l1dcache.prefetcher 84718.347081                       # average overall miss latency ((Tick/Count))
board.cache_hierarchy.clusters.l2_5_cache.overallAvgMissLatency::cache_hierarchy.clusters.l2cache.prefetcher 55662.964308                       # average overall miss latency ((Tick/Count))
board.cache_hierarchy.clusters.l2_5_cache.overallAvgMissLatency::processor.cores.core.inst 64466.675797                       # average overall miss latency ((Tick/Count))
board.cache_hierarchy.clusters.l2_5_cache.overallAvgMissLatency::processor.cores.core.data 65490.441527                       # average overall miss latency ((Tick/Count))
board.cache_hierarchy.clusters.l2_5_cache.overallAvgMissLatency::total 66266.917833                       # average overall miss latency ((Tick/Count))
board.cache_hierarchy.clusters.l2_5_cache.blockedCycles::no_mshrs         1848                       # number of cycles access was blocked (Cycle)
board.cache_hierarchy.clusters.l2_5_cache.blockedCycles::no_targets            0                       # number of cycles access was blocked (Cycle)
board.cache_hierarchy.clusters.l2_5_cache.blockedCauses::no_mshrs           28                       # number of times access was blocked (Count)
board.cache_hierarchy.clusters.l2_5_cache.blockedCauses::no_targets            0                       # number of times access was blocked (Count)
board.cache_hierarchy.clusters.l2_5_cache.avgBlocked::no_mshrs           66                       # average number of cycles each access was blocked ((Cycle/Count))
board.cache_hierarchy.clusters.l2_5_cache.avgBlocked::no_targets          nan                       # average number of cycles each access was blocked ((Cycle/Count))
board.cache_hierarchy.clusters.l2_5_cache.writebacks::writebacks         7188                       # number of writebacks (Count)
board.cache_hierarchy.clusters.l2_5_cache.writebacks::total         7188                       # number of writebacks (Count)
board.cache_hierarchy.clusters.l2_5_cache.demandMshrHits::cache_hierarchy.clusters.l1dcache.prefetcher           21                       # number of demand (read+write) MSHR hits (Count)
board.cache_hierarchy.clusters.l2_5_cache.demandMshrHits::cache_hierarchy.clusters.l2cache.prefetcher          575                       # number of demand (read+write) MSHR hits (Count)
board.cache_hierarchy.clusters.l2_5_cache.demandMshrHits::processor.cores.core.data            2                       # number of demand (read+write) MSHR hits (Count)
board.cache_hierarchy.clusters.l2_5_cache.demandMshrHits::total          598                       # number of demand (read+write) MSHR hits (Count)
board.cache_hierarchy.clusters.l2_5_cache.overallMshrHits::cache_hierarchy.clusters.l1dcache.prefetcher           21                       # number of overall MSHR hits (Count)
board.cache_hierarchy.clusters.l2_5_cache.overallMshrHits::cache_hierarchy.clusters.l2cache.prefetcher          575                       # number of overall MSHR hits (Count)
board.cache_hierarchy.clusters.l2_5_cache.overallMshrHits::processor.cores.core.data            2                       # number of overall MSHR hits (Count)
board.cache_hierarchy.clusters.l2_5_cache.overallMshrHits::total          598                       # number of overall MSHR hits (Count)
board.cache_hierarchy.clusters.l2_5_cache.demandMshrMisses::cache_hierarchy.clusters.l1dcache.prefetcher         2137                       # number of demand (read+write) MSHR misses (Count)
board.cache_hierarchy.clusters.l2_5_cache.demandMshrMisses::cache_hierarchy.clusters.l2cache.prefetcher         2563                       # number of demand (read+write) MSHR misses (Count)
board.cache_hierarchy.clusters.l2_5_cache.demandMshrMisses::processor.cores.core.inst         2008                       # number of demand (read+write) MSHR misses (Count)
board.cache_hierarchy.clusters.l2_5_cache.demandMshrMisses::processor.cores.core.data         3769                       # number of demand (read+write) MSHR misses (Count)
board.cache_hierarchy.clusters.l2_5_cache.demandMshrMisses::total        10477                       # number of demand (read+write) MSHR misses (Count)
board.cache_hierarchy.clusters.l2_5_cache.overallMshrMisses::cache_hierarchy.clusters.l1dcache.prefetcher         2137                       # number of overall MSHR misses (Count)
board.cache_hierarchy.clusters.l2_5_cache.overallMshrMisses::cache_hierarchy.clusters.l2_5_cache.prefetcher         3792                       # number of overall MSHR misses (Count)
board.cache_hierarchy.clusters.l2_5_cache.overallMshrMisses::cache_hierarchy.clusters.l2cache.prefetcher         2563                       # number of overall MSHR misses (Count)
board.cache_hierarchy.clusters.l2_5_cache.overallMshrMisses::processor.cores.core.inst         2008                       # number of overall MSHR misses (Count)
board.cache_hierarchy.clusters.l2_5_cache.overallMshrMisses::processor.cores.core.data         3769                       # number of overall MSHR misses (Count)
board.cache_hierarchy.clusters.l2_5_cache.overallMshrMisses::total        14269                       # number of overall MSHR misses (Count)
board.cache_hierarchy.clusters.l2_5_cache.demandMshrMissLatency::cache_hierarchy.clusters.l1dcache.prefetcher    180547462                       # number of demand (read+write) MSHR miss ticks (Tick)
board.cache_hierarchy.clusters.l2_5_cache.demandMshrMissLatency::cache_hierarchy.clusters.l2cache.prefetcher    140072173                       # number of demand (read+write) MSHR miss ticks (Tick)
board.cache_hierarchy.clusters.l2_5_cache.demandMshrMissLatency::processor.cores.core.inst    128780421                       # number of demand (read+write) MSHR miss ticks (Tick)
board.cache_hierarchy.clusters.l2_5_cache.demandMshrMissLatency::processor.cores.core.data    245563857                       # number of demand (read+write) MSHR miss ticks (Tick)
board.cache_hierarchy.clusters.l2_5_cache.demandMshrMissLatency::total    694963913                       # number of demand (read+write) MSHR miss ticks (Tick)
board.cache_hierarchy.clusters.l2_5_cache.overallMshrMissLatency::cache_hierarchy.clusters.l1dcache.prefetcher    180547462                       # number of overall MSHR miss ticks (Tick)
board.cache_hierarchy.clusters.l2_5_cache.overallMshrMissLatency::cache_hierarchy.clusters.l2_5_cache.prefetcher    224035583                       # number of overall MSHR miss ticks (Tick)
board.cache_hierarchy.clusters.l2_5_cache.overallMshrMissLatency::cache_hierarchy.clusters.l2cache.prefetcher    140072173                       # number of overall MSHR miss ticks (Tick)
board.cache_hierarchy.clusters.l2_5_cache.overallMshrMissLatency::processor.cores.core.inst    128780421                       # number of overall MSHR miss ticks (Tick)
board.cache_hierarchy.clusters.l2_5_cache.overallMshrMissLatency::processor.cores.core.data    245563857                       # number of overall MSHR miss ticks (Tick)
board.cache_hierarchy.clusters.l2_5_cache.overallMshrMissLatency::total    918999496                       # number of overall MSHR miss ticks (Tick)
board.cache_hierarchy.clusters.l2_5_cache.demandMshrMissRate::cache_hierarchy.clusters.l1dcache.prefetcher     0.083880                       # mshr miss ratio for demand accesses (Ratio)
board.cache_hierarchy.clusters.l2_5_cache.demandMshrMissRate::cache_hierarchy.clusters.l2cache.prefetcher     0.059015                       # mshr miss ratio for demand accesses (Ratio)
board.cache_hierarchy.clusters.l2_5_cache.demandMshrMissRate::processor.cores.core.inst     0.794933                       # mshr miss ratio for demand accesses (Ratio)
board.cache_hierarchy.clusters.l2_5_cache.demandMshrMissRate::processor.cores.core.data     0.160070                       # mshr miss ratio for demand accesses (Ratio)
board.cache_hierarchy.clusters.l2_5_cache.demandMshrMissRate::total     0.110309                       # mshr miss ratio for demand accesses (Ratio)
[...]
board.processor.cores.core.fetch.nisnDist::3      3471148      8.38%     54.40% # Number of instructions fetched each cycle (Total) (Count)
board.processor.cores.core.fetch.nisnDist::4      1717361      4.15%     58.54% # Number of instructions fetched each cycle (Total) (Count)
board.processor.cores.core.fetch.nisnDist::5      5079543     12.26%     70.81% # Number of instructions fetched each cycle (Total) (Count)
board.processor.cores.core.fetch.nisnDist::6      7032217     16.98%     87.78% # Number of instructions fetched each cycle (Total) (Count)
board.processor.cores.core.fetch.nisnDist::7       987872      2.39%     90.17% # Number of instructions fetched each cycle (Total) (Count)
board.processor.cores.core.fetch.nisnDist::8      4071744      9.83%    100.00% # Number of instructions fetched each cycle (Total) (Count)
board.processor.cores.core.fetch.nisnDist::overflows            0      0.00%    100.00% # Number of instructions fetched each cycle (Total) (Count)
board.processor.cores.core.fetch.nisnDist::min_value            0                       # Number of instructions fetched each cycle (Total) (Count)
board.processor.cores.core.fetch.nisnDist::max_value            8                       # Number of instructions fetched each cycle (Total) (Count)
board.processor.cores.core.fetch.nisnDist::total     41418361                       # Number of instructions fetched each cycle (Total) (Count)
board.processor.cores.core.fetchStats0.numInsts    143619209                       # Number of instructions fetched (thread level) (Count)
board.processor.cores.core.fetchStats0.numOps            0                       # Number of ops (including micro ops) fetched (thread level) (Count)
board.processor.cores.core.fetchStats0.fetchRate     3.449822                       # Number of inst fetches per cycle ((Count/Cycle))
board.processor.cores.core.fetchStats0.numBranches     37992081                       # Number of branches fetched (Count)
board.processor.cores.core.fetchStats0.branchRate     0.912593                       # Number of branch fetches per cycle (Ratio)
board.processor.cores.core.fetchStats0.icacheStallCycles      1071153                       # ICache total stall cycles (Cycle)
board.processor.cores.core.fetchStats0.numFetchSuspends            0                       # Number of times Execute suspended instruction fetching (Count)
board.processor.cores.core.iew.idleCycles            0                       # Number of cycles IEW is idle (Cycle)
board.processor.cores.core.iew.squashCycles      2006919                       # Number of cycles IEW is squashing (Cycle)
board.processor.cores.core.iew.blockCycles      7093044                       # Number of cycles IEW is blocking (Cycle)
board.processor.cores.core.iew.unblockCycles       119856                       # Number of cycles IEW is unblocking (Cycle)
board.processor.cores.core.iew.dispatchedInsts    103890306                       # Number of instructions dispatched to IQ (Count)
board.processor.cores.core.iew.dispSquashedInsts       635272                       # Number of squashed instructions skipped by dispatch (Count)
board.processor.cores.core.iew.dispLoadInsts     22915737                       # Number of dispatched load instructions (Count)
board.processor.cores.core.iew.dispStoreInsts      6959297                       # Number of dispatched store instructions (Count)
board.processor.cores.core.iew.dispNonSpecInsts        69344                       # Number of dispatched non-speculative instructions (Count)
board.processor.cores.core.iew.iqFullEvents        21442                       # Number of times the IQ has become full, causing a stall (Count)
board.processor.cores.core.iew.lsqFullEvents        17201                       # Number of times the LSQ has become full, causing a stall (Count)
board.processor.cores.core.iew.memOrderViolationEvents         6540                       # Number of memory order violations (Count)
board.processor.cores.core.iew.predictedTakenIncorrect      1358576                       # Number of branches that were predicted taken incorrectly (Count)
board.processor.cores.core.iew.predictedNotTakenIncorrect      1284401                       # Number of branches that were predicted not taken incorrectly (Count)
board.processor.cores.core.iew.branchMispredicts      2642977                       # Number of branch mispredicts detected at execute (Count)
board.processor.cores.core.iew.instsToCommit     76565936                       # Cumulative count of insts sent to commit (Count)
board.processor.cores.core.iew.writebackCount     75011770                       # Cumulative count of insts written-back (Count)
board.processor.cores.core.iew.producerInst     42732970                       # Number of instructions producing a value (Count)
board.processor.cores.core.iew.consumerInst     73958979                       # Number of instructions consuming a value (Count)
board.processor.cores.core.iew.wbRate        1.801829                       # Insts written-back per cycle ((Count/Cycle))
board.processor.cores.core.iew.wbFanout      0.577793                       # Average fanout of values written-back ((Count/Count))
board.processor.cores.core.lsq0.forwLoads       793124                       # Number of loads that had data forwarded from stores (Count)
board.processor.cores.core.lsq0.squashedLoads     12451705                       # Number of loads squashed (Count)
board.processor.cores.core.lsq0.ignoredResponses         3514                       # Number of memory responses ignored because the instruction is squashed (Count)
board.processor.cores.core.lsq0.memOrderViolation         6540                       # Number of memory ordering violations (Count)
board.processor.cores.core.lsq0.squashedStores      4118465                       # Number of stores squashed (Count)
board.processor.cores.core.lsq0.rescheduledLoads         4985                       # Number of loads that were rescheduled (Count)
board.processor.cores.core.lsq0.blockedByCache          142                       # Number of times an access to memory failed due to the cache being blocked (Count)
board.processor.cores.core.lsq0.loadToUse::samples     10464032                       # Distribution of cycle latency between the first time a load is issued and its completion (Unspecified)
board.processor.cores.core.lsq0.loadToUse::mean     2.547184                       # Distribution of cycle latency between the first time a load is issued and its completion (Unspecified)
board.processor.cores.core.lsq0.loadToUse::stdev     3.190827                       # Distribution of cycle latency between the first time a load is issued and its completion (Unspecified)
board.processor.cores.core.lsq0.loadToUse::0-9     10334257     98.76%     98.76% # Distribution of cycle latency between the first time a load is issued and its completion (Unspecified)
board.processor.cores.core.lsq0.loadToUse::10-19       100523      0.96%     99.72% # Distribution of cycle latency between the first time a load is issued and its completion (Unspecified)
board.processor.cores.core.lsq0.loadToUse::20-29        20108      0.19%     99.91% # Distribution of cycle latency between the first time a load is issued and its completion (Unspecified)
board.processor.cores.core.lsq0.loadToUse::30-39         7609      0.07%     99.99% # Distribution of cycle latency between the first time a load is issued and its completion (Unspecified)
board.processor.cores.core.lsq0.loadToUse::40-49          345      0.00%     99.99% # Distribution of cycle latency between the first time a load is issued and its completion (Unspecified)
board.processor.cores.core.lsq0.loadToUse::50-59          313      0.00%     99.99% # Distribution of cycle latency between the first time a load is issued and its completion (Unspecified)
board.processor.cores.core.lsq0.loadToUse::60-69          152      0.00%     99.99% # Distribution of cycle latency between the first time a load is issued and its completion (Unspecified)
board.processor.cores.core.lsq0.loadToUse::70-79           13      0.00%     99.99% # Distribution of cycle latency between the first time a load is issued and its completion (Unspecified)
board.processor.cores.core.lsq0.loadToUse::80-89           16      0.00%     99.99% # Distribution of cycle latency between the first time a load is issued and its completion (Unspecified)
board.processor.cores.core.lsq0.loadToUse::90-99           15      0.00%     99.99% # Distribution of cycle latency between the first time a load is issued and its completion (Unspecified)
board.processor.cores.core.lsq0.loadToUse::100-109           14      0.00%     99.99% # Distribution of cycle latency between the first time a load is issued and its completion (Unspecified)
board.processor.cores.core.lsq0.loadToUse::110-119           14      0.00%     99.99% # Distribution of cycle latency between the first time a load is issued and its completion (Unspecified)
board.processor.cores.core.lsq0.loadToUse::120-129           14      0.00%     99.99% # Distribution of cycle latency between the first time a load is issued and its completion (Unspecified)
board.processor.cores.core.lsq0.loadToUse::130-139           36      0.00%     99.99% # Distribution of cycle latency between the first time a load is issued and its completion (Unspecified)
board.processor.cores.core.lsq0.loadToUse::140-149           15      0.00%     99.99% # Distribution of cycle latency between the first time a load is issued and its completion (Unspecified)
board.processor.cores.core.lsq0.loadToUse::150-159           13      0.00%     99.99% # Distribution of cycle latency between the first time a load is issued and its completion (Unspecified)
board.processor.cores.core.lsq0.loadToUse::160-169            7      0.00%     99.99% # Distribution of cycle latency between the first time a load is issued and its completion (Unspecified)
board.processor.cores.core.lsq0.loadToUse::170-179           13      0.00%     99.99% # Distribution of cycle latency between the first time a load is issued and its completion (Unspecified)
board.processor.cores.core.lsq0.loadToUse::180-189          141      0.00%    100.00% # Distribution of cycle latency between the first time a load is issued and its completion (Unspecified)
board.processor.cores.core.lsq0.loadToUse::190-199           50      0.00%    100.00% # Distribution of cycle latency between the first time a load is issued and its completion (Unspecified)
board.processor.cores.core.lsq0.loadToUse::200-209           12      0.00%    100.00% # Distribution of cycle latency between the first time a load is issued and its completion (Unspecified)
board.processor.cores.core.lsq0.loadToUse::210-219           14      0.00%    100.00% # Distribution of cycle latency between the first time a load is issued and its completion (Unspecified)
board.processor.cores.core.lsq0.loadToUse::220-229          100      0.00%    100.00% # Distribution of cycle latency between the first time a load is issued and its completion (Unspecified)
board.processor.cores.core.lsq0.loadToUse::230-239           20      0.00%    100.00% # Distribution of cycle latency between the first time a load is issued and its completion (Unspecified)
board.processor.cores.core.lsq0.loadToUse::240-249            9      0.00%    100.00% # Distribution of cycle latency between the first time a load is issued and its completion (Unspecified)
board.processor.cores.core.lsq0.loadToUse::250-259           14      0.00%    100.00% # Distribution of cycle latency between the first time a load is issued and its completion (Unspecified)
board.processor.cores.core.lsq0.loadToUse::260-269           60      0.00%    100.00% # Distribution of cycle latency between the first time a load is issued and its completion (Unspecified)
board.processor.cores.core.lsq0.loadToUse::270-279           17      0.00%    100.00% # Distribution of cycle latency between the first time a load is issued and its completion (Unspecified)
board.processor.cores.core.lsq0.loadToUse::280-289           22      0.00%    100.00% # Distribution of cycle latency between the first time a load is issued and its completion (Unspecified)
board.processor.cores.core.lsq0.loadToUse::290-299            7      0.00%    100.00% # Distribution of cycle latency between the first time a load is issued and its completion (Unspecified)
board.processor.cores.core.lsq0.loadToUse::overflows           89      0.00%    100.00% # Distribution of cycle latency between the first time a load is issued and its completion (Unspecified)
board.processor.cores.core.lsq0.loadToUse::min_value            2                       # Distribution of cycle latency between the first time a load is issued and its completion (Unspecified)
board.processor.cores.core.lsq0.loadToUse::max_value         1417                       # Distribution of cycle latency between the first time a load is issued and its completion (Unspecified)
board.processor.cores.core.lsq0.loadToUse::total     10464032                       # Distribution of cycle latency between the first time a load is issued and its completion (Unspecified)
board.processor.cores.core.mmu.dtb.readHits            0                       # read hits (Count)
board.processor.cores.core.mmu.dtb.readMisses            0                       # read misses (Count)
board.processor.cores.core.mmu.dtb.readAccesses            0                       # read accesses (Count)
board.processor.cores.core.mmu.dtb.writeHits            0                       # write hits (Count)
board.processor.cores.core.mmu.dtb.writeMisses            0                       # write misses (Count)
board.processor.cores.core.mmu.dtb.writeAccesses            0                       # write accesses (Count)
board.processor.cores.core.mmu.dtb.hits             0                       # Total TLB (read and write) hits (Count)
board.processor.cores.core.mmu.dtb.misses            0                       # Total TLB (read and write) misses (Count)
board.processor.cores.core.mmu.dtb.accesses            0                       # Total TLB (read and write) accesses (Count)
board.processor.cores.core.mmu.dtb.walker.num_4kb_walks            0                       # Completed page walks with 4KB pages (Count)
board.processor.cores.core.mmu.dtb.walker.num_2mb_walks            0                       # Completed page walks with 2MB pages (Count)
board.processor.cores.core.mmu.dtb.walker.power_state.pwrStateResidencyTicks::UNDEFINED  13863090699                       # Cumulative time (in ticks) in various power states (Tick)
board.processor.cores.core.mmu.itb.readHits            0                       # read hits (Count)
board.processor.cores.core.mmu.itb.readMisses            0                       # read misses (Count)
board.processor.cores.core.mmu.itb.readAccesses            0                       # read accesses (Count)
board.processor.cores.core.mmu.itb.writeHits            0                       # write hits (Count)
board.processor.cores.core.mmu.itb.writeMisses            0                       # write misses (Count)
board.processor.cores.core.mmu.itb.writeAccesses            0                       # write accesses (Count)
board.processor.cores.core.mmu.itb.hits             0                       # Total TLB (read and write) hits (Count)
board.processor.cores.core.mmu.itb.misses            0                       # Total TLB (read and write) misses (Count)
board.processor.cores.core.mmu.itb.accesses            0                       # Total TLB (read and write) accesses (Count)
board.processor.cores.core.mmu.itb.walker.num_4kb_walks            0                       # Completed page walks with 4KB pages (Count)
board.processor.cores.core.mmu.itb.walker.num_2mb_walks            0                       # Completed page walks with 2MB pages (Count)
board.processor.cores.core.mmu.itb.walker.power_state.pwrStateResidencyTicks::UNDEFINED  13863090699                       # Cumulative time (in ticks) in various power states (Tick)
board.processor.cores.core.power_state.pwrStateResidencyTicks::ON  13863090699                       # Cumulative time (in ticks) in various power states (Tick)
board.processor.cores.core.rename.squashCycles      2006919                       # Number of cycles rename is squashing (Cycle)
board.processor.cores.core.rename.idleCycles      7273285                       # Number of cycles rename is idle (Cycle)
board.processor.cores.core.rename.blockCycles      7678457                       # Number of cycles rename is blocking (Cycle)
board.processor.cores.core.rename.serializeStallCycles        42246                       # count of cycles rename stalled for serializing inst (Cycle)
board.processor.cores.core.rename.runCycles     22559267                       # Number of cycles rename is running (Cycle)
board.processor.cores.core.rename.unblockCycles      1858187                       # Number of cycles rename is unblocking (Cycle)
board.processor.cores.core.rename.renamedInsts    122329821                       # Number of instructions processed by rename (Count)
board.processor.cores.core.rename.ROBFullEvents           95                       # Number of times rename has blocked due to ROB full (Count)
board.processor.cores.core.rename.IQFullEvents       665622                       # Number of times rename has blocked due to IQ full (Count)
board.processor.cores.core.rename.LQFullEvents       262925                       # Number of times rename has blocked due to LQ full (Count)
board.processor.cores.core.rename.SQFullEvents       116258                       # Number of times rename has blocked due to SQ full (Count)
board.processor.cores.core.rename.renamedOperands     82866632                       # Number of destination operands rename has renamed (Count)
board.processor.cores.core.rename.lookups    166757436                       # Number of register rename lookups that rename has made (Count)
board.processor.cores.core.rename.intLookups    165927320                       # Number of integer rename lookups (Count)
board.processor.cores.core.rename.fpLookups          651                       # Number of floating rename lookups (Count)
board.processor.cores.core.rename.committedMaps     32740149                       # Number of HB maps that are committed (Count)
board.processor.cores.core.rename.undoneMaps     50126483                       # Number of HB maps that are undone due to squashing (Count)
board.processor.cores.core.rename.serializing         1186                       # count of serializing insts renamed (Count)
board.processor.cores.core.rename.tempSerializing         1195                       # count of temporary serializing insts renamed (Count)
board.processor.cores.core.rename.skidInsts      4955267                       # count of insts added to the skid buffer (Count)
board.processor.cores.core.rob.reads        135780920                       # The number of ROB reads (Count)
board.processor.cores.core.rob.writes       215794750                       # The number of ROB writes (Count)
board.processor.cores.core.thread_0.numInsts     47268961                       # Number of Instructions committed (Count)
board.processor.cores.core.thread_0.numOps     47335057                       # Number of Ops committed (Count)
board.processor.cores.core.thread_0.numMemRefs            0                       # Number of Memory References (Count)
board.processor.cores.core.workload.numSyscalls           94                       # Number of system calls (Count)
board.workload.inst.arm                             0                       # number of arm instructions executed (Count)
board.workload.inst.quiesce                         0                       # number of quiesce instructions executed (Count)

---------- End Simulation Statistics   ----------
