2
---------- Begin Simulation Statistics ----------
simSeconds                                   0.004010                       # Number of seconds simulated (Second)
simTicks                                   4009567752                       # Number of ticks simulated (Tick)
finalTick                                  4009567752                       # Number of ticks from beginning of simulation (restored from checkpoints and never reset) (Tick)
simFreq                                  1000000000000                       # The number of ticks per simulated second ((Tick/Second))
hostSeconds                                     57.63                       # Real time elapsed on the host (Second)
hostTickRate                                 69577123                       # The number of ticks simulated per host second (ticks/s) ((Tick/Second))
hostMemory                                    1313692                       # Number of bytes of host memory used (Byte)
simInsts                                     13703288                       # Number of instructions simulated (Count)
simOps                                       13776921                       # Number of ops (including micro ops) simulated (Count)
hostInstRate                                   237790                       # Simulator instruction rate (inst/s) ((Count/Second))
hostOpRate                                     239067                       # Simulator op (including micro ops) rate (op/s) ((Count/Second))
board.cache_hierarchy.clusters.dptw_cache.blockedCycles::no_mshrs            0                       # number of cycles access was blocked (Cycle)
board.cache_hierarchy.clusters.dptw_cache.blockedCycles::no_targets            0                       # number of cycles access was blocked (Cycle)
board.cache_hierarchy.clusters.dptw_cache.blockedCauses::no_mshrs            0                       # number of times access was blocked (Count)
board.cache_hierarchy.clusters.dptw_cache.blockedCauses::no_targets            0                       # number of times access was blocked (Count)
board.cache_hierarchy.clusters.dptw_cache.avgBlocked::no_mshrs          nan                       # average number of cycles each access was blocked ((Cycle/Count))
board.cache_hierarchy.clusters.dptw_cache.avgBlocked::no_targets          nan                       # average number of cycles each access was blocked ((Cycle/Count))
board.cache_hierarchy.clusters.dptw_cache.replacements            0                       # number of replacements (Count)
board.cache_hierarchy.clusters.dptw_cache.power_state.pwrStateResidencyTicks::UNDEFINED   4009567752                       # Cumulative time (in ticks) in various power states (Tick)
board.cache_hierarchy.clusters.dptw_cache.tags.tagsInUse            0                       # Average ticks per tags in use ((Tick/Count))
board.cache_hierarchy.clusters.dptw_cache.tags.totalRefs            0                       # Total number of references to valid blocks. (Count)
board.cache_hierarchy.clusters.dptw_cache.tags.sampledRefs            0                       # Sample count of references to valid blocks. (Count)
board.cache_hierarchy.clusters.dptw_cache.tags.avgRefs          nan                       # Average number of references to valid blocks. ((Count/Count))
board.cache_hierarchy.clusters.dptw_cache.tags.warmupTick            0                       # The tick when the warmup percentage was hit. (Tick)
board.cache_hierarchy.clusters.dptw_cache.tags.tagAccesses            0                       # Number of tag accesses (Count)
board.cache_hierarchy.clusters.dptw_cache.tags.dataAccesses            0                       # Number of data accesses (Count)
board.cache_hierarchy.clusters.dptw_cache.tags.power_state.pwrStateResidencyTicks::UNDEFINED   4009567752                       # Cumulative time (in ticks) in various power states (Tick)
board.cache_hierarchy.clusters.iptw_cache.blockedCycles::no_mshrs            0                       # number of cycles access was blocked (Cycle)
board.cache_hierarchy.clusters.iptw_cache.blockedCycles::no_targets            0                       # number of cycles access was blocked (Cycle)
board.cache_hierarchy.clusters.iptw_cache.blockedCauses::no_mshrs            0                       # number of times access was blocked (Count)
board.cache_hierarchy.clusters.iptw_cache.blockedCauses::no_targets            0                       # number of times access was blocked (Count)
board.cache_hierarchy.clusters.iptw_cache.avgBlocked::no_mshrs          nan                       # average number of cycles each access was blocked ((Cycle/Count))
board.cache_hierarchy.clusters.iptw_cache.avgBlocked::no_targets          nan                       # average number of cycles each access was blocked ((Cycle/Count))
board.cache_hierarchy.clusters.iptw_cache.replacements            0                       # number of replacements (Count)
board.cache_hierarchy.clusters.iptw_cache.power_state.pwrStateResidencyTicks::UNDEFINED   4009567752                       # Cumulative time (in ticks) in various power states (Tick)
board.cache_hierarchy.clusters.iptw_cache.tags.tagsInUse            0                       # Average ticks per tags in use ((Tick/Count))
board.cache_hierarchy.clusters.iptw_cache.tags.totalRefs            0                       # Total number of references to valid blocks. (Count)
board.cache_hierarchy.clusters.iptw_cache.tags.sampledRefs            0                       # Sample count of references to valid blocks. (Count)
board.cache_hierarchy.clusters.iptw_cache.tags.avgRefs          nan                       # Average number of references to valid blocks. ((Count/Count))
board.cache_hierarchy.clusters.iptw_cache.tags.warmupTick            0                       # The tick when the warmup percentage was hit. (Tick)
board.cache_hierarchy.clusters.iptw_cache.tags.tagAccesses            0                       # Number of tag accesses (Count)
board.cache_hierarchy.clusters.iptw_cache.tags.dataAccesses            0                       # Number of data accesses (Count)
board.cache_hierarchy.clusters.iptw_cache.tags.power_state.pwrStateResidencyTicks::UNDEFINED   4009567752                       # Cumulative time (in ticks) in various power states (Tick)
board.cache_hierarchy.clusters.l1dcache.demandHits::processor.cores.core.data      3598352                       # number of demand (read+write) hits (Count)
board.cache_hierarchy.clusters.l1dcache.demandHits::total      3598352                       # number of demand (read+write) hits (Count)
board.cache_hierarchy.clusters.l1dcache.overallHits::processor.cores.core.data      3598352                       # number of overall hits (Count)
board.cache_hierarchy.clusters.l1dcache.overallHits::total      3598352                       # number of overall hits (Count)
board.cache_hierarchy.clusters.l1dcache.demandMisses::processor.cores.core.data        53861                       # number of demand (read+write) misses (Count)
board.cache_hierarchy.clusters.l1dcache.demandMisses::total        53861                       # number of demand (read+write) misses (Count)
board.cache_hierarchy.clusters.l1dcache.overallMisses::processor.cores.core.data        53861                       # number of overall misses (Count)
board.cache_hierarchy.clusters.l1dcache.overallMisses::total        53861                       # number of overall misses (Count)
board.cache_hierarchy.clusters.l1dcache.demandMissLatency::processor.cores.core.data    904026402                       # number of demand (read+write) miss ticks (Tick)
board.cache_hierarchy.clusters.l1dcache.demandMissLatency::total    904026402                       # number of demand (read+write) miss ticks (Tick)
board.cache_hierarchy.clusters.l1dcache.overallMissLatency::processor.cores.core.data    904026402                       # number of overall miss ticks (Tick)
board.cache_hierarchy.clusters.l1dcache.overallMissLatency::total    904026402                       # number of overall miss ticks (Tick)
board.cache_hierarchy.clusters.l1dcache.demandAccesses::processor.cores.core.data      3652213                       # number of demand (read+write) accesses (Count)
board.cache_hierarchy.clusters.l1dcache.demandAccesses::total      3652213                       # number of demand (read+write) accesses (Count)
board.cache_hierarchy.clusters.l1dcache.overallAccesses::processor.cores.core.data      3652213                       # number of overall (read+write) accesses (Count)
board.cache_hierarchy.clusters.l1dcache.overallAccesses::total      3652213                       # number of overall (read+write) accesses (Count)
board.cache_hierarchy.clusters.l1dcache.demandMissRate::processor.cores.core.data     0.014747                       # miss rate for demand accesses (Ratio)
board.cache_hierarchy.clusters.l1dcache.demandMissRate::total     0.014747                       # miss rate for demand accesses (Ratio)
board.cache_hierarchy.clusters.l1dcache.overallMissRate::processor.cores.core.data     0.014747                       # miss rate for overall accesses (Ratio)
board.cache_hierarchy.clusters.l1dcache.overallMissRate::total     0.014747                       # miss rate for overall accesses (Ratio)
board.cache_hierarchy.clusters.l1dcache.demandAvgMissLatency::processor.cores.core.data 16784.434043                       # average overall miss latency in ticks ((Tick/Count))
board.cache_hierarchy.clusters.l1dcache.demandAvgMissLatency::total 16784.434043                       # average overall miss latency in ticks ((Tick/Count))
board.cache_hierarchy.clusters.l1dcache.overallAvgMissLatency::processor.cores.core.data 16784.434043                       # average overall miss latency ((Tick/Count))
board.cache_hierarchy.clusters.l1dcache.overallAvgMissLatency::total 16784.434043                       # average overall miss latency ((Tick/Count))
board.cache_hierarchy.clusters.l1dcache.blockedCycles::no_mshrs           31                       # number of cycles access was blocked (Cycle)
board.cache_hierarchy.clusters.l1dcache.blockedCycles::no_targets         1699                       # number of cycles access was blocked (Cycle)
board.cache_hierarchy.clusters.l1dcache.blockedCauses::no_mshrs            2                       # number of times access was blocked (Count)
board.cache_hierarchy.clusters.l1dcache.blockedCauses::no_targets           23                       # number of times access was blocked (Count)
board.cache_hierarchy.clusters.l1dcache.avgBlocked::no_mshrs    15.500000                       # average number of cycles each access was blocked ((Cycle/Count))
board.cache_hierarchy.clusters.l1dcache.avgBlocked::no_targets    73.869565                       # average number of cycles each access was blocked ((Cycle/Count))
board.cache_hierarchy.clusters.l1dcache.writebacks::writebacks        31145                       # number of writebacks (Count)
board.cache_hierarchy.clusters.l1dcache.writebacks::total        31145                       # number of writebacks (Count)
board.cache_hierarchy.clusters.l1dcache.demandMshrHits::processor.cores.core.data        33667                       # number of demand (read+write) MSHR hits (Count)
board.cache_hierarchy.clusters.l1dcache.demandMshrHits::total        33667                       # number of demand (read+write) MSHR hits (Count)
board.cache_hierarchy.clusters.l1dcache.overallMshrHits::processor.cores.core.data        33667                       # number of overall MSHR hits (Count)
board.cache_hierarchy.clusters.l1dcache.overallMshrHits::total        33667                       # number of overall MSHR hits (Count)
board.cache_hierarchy.clusters.l1dcache.demandMshrMisses::processor.cores.core.data        20194                       # number of demand (read+write) MSHR misses (Count)
board.cache_hierarchy.clusters.l1dcache.demandMshrMisses::total        20194                       # number of demand (read+write) MSHR misses (Count)
board.cache_hierarchy.clusters.l1dcache.overallMshrMisses::cache_hierarchy.clusters.l1dcache.prefetcher        22935                       # number of overall MSHR misses (Count)
board.cache_hierarchy.clusters.l1dcache.overallMshrMisses::processor.cores.core.data        20194                       # number of overall MSHR misses (Count)
board.cache_hierarchy.clusters.l1dcache.overallMshrMisses::total        43129                       # number of overall MSHR misses (Count)
board.cache_hierarchy.clusters.l1dcache.demandMshrMissLatency::processor.cores.core.data    332104896                       # number of demand (read+write) MSHR miss ticks (Tick)
board.cache_hierarchy.clusters.l1dcache.demandMshrMissLatency::total    332104896                       # number of demand (read+write) MSHR miss ticks (Tick)
board.cache_hierarchy.clusters.l1dcache.overallMshrMissLatency::cache_hierarchy.clusters.l1dcache.prefetcher    302333432                       # number of overall MSHR miss ticks (Tick)
board.cache_hierarchy.clusters.l1dcache.overallMshrMissLatency::processor.cores.core.data    332104896                       # number of overall MSHR miss ticks (Tick)
board.cache_hierarchy.clusters.l1dcache.overallMshrMissLatency::total    634438328                       # number of overall MSHR miss ticks (Tick)
board.cache_hierarchy.clusters.l1dcache.demandMshrMissRate::processor.cores.core.data     0.005529                       # mshr miss ratio for demand accesses (Ratio)
board.cache_hierarchy.clusters.l1dcache.demandMshrMissRate::total     0.005529                       # mshr miss ratio for demand accesses (Ratio)
board.cache_hierarchy.clusters.l1dcache.overallMshrMissRate::cache_hierarchy.clusters.l1dcache.prefetcher          inf                       # mshr miss ratio for overall accesses (Ratio)
board.cache_hierarchy.clusters.l1dcache.overallMshrMissRate::processor.cores.core.data     0.005529                       # mshr miss ratio for overall accesses (Ratio)
board.cache_hierarchy.clusters.l1dcache.overallMshrMissRate::total     0.011809                       # mshr miss ratio for overall accesses (Ratio)
board.cache_hierarchy.clusters.l1dcache.demandAvgMshrMissLatency::processor.cores.core.data 16445.721303                       # average overall mshr miss latency ((Tick/Count))
board.cache_hierarchy.clusters.l1dcache.demandAvgMshrMissLatency::total 16445.721303                       # average overall mshr miss latency ((Tick/Count))
board.cache_hierarchy.clusters.l1dcache.overallAvgMshrMissLatency::cache_hierarchy.clusters.l1dcache.prefetcher 13182.185830                       # average overall mshr miss latency ((Tick/Count))
board.cache_hierarchy.clusters.l1dcache.overallAvgMshrMissLatency::processor.cores.core.data 16445.721303                       # average overall mshr miss latency ((Tick/Count))
board.cache_hierarchy.clusters.l1dcache.overallAvgMshrMissLatency::total 14710.248974                       # average overall mshr miss latency ((Tick/Count))
board.cache_hierarchy.clusters.l1dcache.replacements        41066                       # number of replacements (Count)
board.cache_hierarchy.clusters.l1dcache.HardPFReq.mshrMisses::cache_hierarchy.clusters.l1dcache.prefetcher        22935                       # number of HardPFReq MSHR misses (Count)
board.cache_hierarchy.clusters.l1dcache.HardPFReq.mshrMisses::total        22935                       # number of HardPFReq MSHR misses (Count)
board.cache_hierarchy.clusters.l1dcache.HardPFReq.mshrMissLatency::cache_hierarchy.clusters.l1dcache.prefetcher    302333432                       # number of HardPFReq MSHR miss ticks (Tick)
board.cache_hierarchy.clusters.l1dcache.HardPFReq.mshrMissLatency::total    302333432                       # number of HardPFReq MSHR miss ticks (Tick)
board.cache_hierarchy.clusters.l1dcache.HardPFReq.mshrMissRate::cache_hierarchy.clusters.l1dcache.prefetcher          inf                       # mshr miss rate for HardPFReq accesses (Ratio)
board.cache_hierarchy.clusters.l1dcache.HardPFReq.mshrMissRate::total          inf                       # mshr miss rate for HardPFReq accesses (Ratio)
board.cache_hierarchy.clusters.l1dcache.HardPFReq.avgMshrMissLatency::cache_hierarchy.clusters.l1dcache.prefetcher 13182.185830                       # average HardPFReq mshr miss latency ((Tick/Count))
board.cache_hierarchy.clusters.l1dcache.HardPFReq.avgMshrMissLatency::total 13182.185830                       # average HardPFReq mshr miss latency ((Tick/Count))
board.cache_hierarchy.clusters.l1dcache.LoadLockedReq.hits::processor.cores.core.data         4230                       # number of LoadLockedReq hits (Count)
board.cache_hierarchy.clusters.l1dcache.LoadLockedReq.hits::total         4230                       # number of LoadLockedReq hits (Count)
board.cache_hierarchy.clusters.l1dcache.LoadLockedReq.misses::processor.cores.core.data           30                       # number of LoadLockedReq misses (Count)
board.cache_hierarchy.clusters.l1dcache.LoadLockedReq.misses::total           30                       # number of LoadLockedReq misses (Count)
board.cache_hierarchy.clusters.l1dcache.LoadLockedReq.missLatency::processor.cores.core.data       710289                       # number of LoadLockedReq miss ticks (Tick)
board.cache_hierarchy.clusters.l1dcache.LoadLockedReq.missLatency::total       710289                       # number of LoadLockedReq miss ticks (Tick)
board.cache_hierarchy.clusters.l1dcache.LoadLockedReq.accesses::processor.cores.core.data         4260                       # number of LoadLockedReq accesses(hits+misses) (Count)
board.cache_hierarchy.clusters.l1dcache.LoadLockedReq.accesses::total         4260                       # number of LoadLockedReq accesses(hits+misses) (Count)
board.cache_hierarchy.clusters.l1dcache.LoadLockedReq.missRate::processor.cores.core.data     0.007042                       # miss rate for LoadLockedReq accesses (Ratio)
board.cache_hierarchy.clusters.l1dcache.LoadLockedReq.missRate::total     0.007042                       # miss rate for LoadLockedReq accesses (Ratio)
board.cache_hierarchy.clusters.l1dcache.LoadLockedReq.avgMissLatency::processor.cores.core.data 23676.300000                       # average LoadLockedReq miss latency ((Tick/Count))
board.cache_hierarchy.clusters.l1dcache.LoadLockedReq.avgMissLatency::total 23676.300000                       # average LoadLockedReq miss latency ((Tick/Count))
board.cache_hierarchy.clusters.l1dcache.LoadLockedReq.mshrHits::processor.cores.core.data           24                       # number of LoadLockedReq MSHR hits (Count)
board.cache_hierarchy.clusters.l1dcache.LoadLockedReq.mshrHits::total           24                       # number of LoadLockedReq MSHR hits (Count)
board.cache_hierarchy.clusters.l1dcache.LoadLockedReq.mshrMisses::processor.cores.core.data            6                       # number of LoadLockedReq MSHR misses (Count)
board.cache_hierarchy.clusters.l1dcache.LoadLockedReq.mshrMisses::total            6                       # number of LoadLockedReq MSHR misses (Count)
board.cache_hierarchy.clusters.l1dcache.LoadLockedReq.mshrMissLatency::processor.cores.core.data       246753                       # number of LoadLockedReq MSHR miss ticks (Tick)
board.cache_hierarchy.clusters.l1dcache.LoadLockedReq.mshrMissLatency::total       246753                       # number of LoadLockedReq MSHR miss ticks (Tick)
board.cache_hierarchy.clusters.l1dcache.LoadLockedReq.mshrMissRate::processor.cores.core.data     0.001408                       # mshr miss rate for LoadLockedReq accesses (Ratio)
board.cache_hierarchy.clusters.l1dcache.LoadLockedReq.mshrMissRate::total     0.001408                       # mshr miss rate for LoadLockedReq accesses (Ratio)
board.cache_hierarchy.clusters.l1dcache.LoadLockedReq.avgMshrMissLatency::processor.cores.core.data 41125.500000                       # average LoadLockedReq mshr miss latency ((Tick/Count))
board.cache_hierarchy.clusters.l1dcache.LoadLockedReq.avgMshrMissLatency::total 41125.500000                       # average LoadLockedReq mshr miss latency ((Tick/Count))
board.cache_hierarchy.clusters.l1dcache.ReadReq.hits::processor.cores.core.data      2847549                       # number of ReadReq hits (Count)
board.cache_hierarchy.clusters.l1dcache.ReadReq.hits::total      2847549                       # number of ReadReq hits (Count)
board.cache_hierarchy.clusters.l1dcache.ReadReq.misses::processor.cores.core.data        31141                       # number of ReadReq misses (Count)
board.cache_hierarchy.clusters.l1dcache.ReadReq.misses::total        31141                       # number of ReadReq misses (Count)
board.cache_hierarchy.clusters.l1dcache.ReadReq.missLatency::processor.cores.core.data    263567835                       # number of ReadReq miss ticks (Tick)
board.cache_hierarchy.clusters.l1dcache.ReadReq.missLatency::total    263567835                       # number of ReadReq miss ticks (Tick)
board.cache_hierarchy.clusters.l1dcache.ReadReq.accesses::processor.cores.core.data      2878690                       # number of ReadReq accesses(hits+misses) (Count)
board.cache_hierarchy.clusters.l1dcache.ReadReq.accesses::total      2878690                       # number of ReadReq accesses(hits+misses) (Count)
board.cache_hierarchy.clusters.l1dcache.ReadReq.missRate::processor.cores.core.data     0.010818                       # miss rate for ReadReq accesses (Ratio)
board.cache_hierarchy.clusters.l1dcache.ReadReq.missRate::total     0.010818                       # miss rate for ReadReq accesses (Ratio)
board.cache_hierarchy.clusters.l1dcache.ReadReq.avgMissLatency::processor.cores.core.data  8463.692078                       # average ReadReq miss latency ((Tick/Count))
board.cache_hierarchy.clusters.l1dcache.ReadReq.avgMissLatency::total  8463.692078                       # average ReadReq miss latency ((Tick/Count))
board.cache_hierarchy.clusters.l1dcache.ReadReq.mshrHits::processor.cores.core.data        22385                       # number of ReadReq MSHR hits (Count)
board.cache_hierarchy.clusters.l1dcache.ReadReq.mshrHits::total        22385                       # number of ReadReq MSHR hits (Count)
board.cache_hierarchy.clusters.l1dcache.ReadReq.mshrMisses::processor.cores.core.data         8756                       # number of ReadReq MSHR misses (Count)
board.cache_hierarchy.clusters.l1dcache.ReadReq.mshrMisses::total         8756                       # number of ReadReq MSHR misses (Count)
board.cache_hierarchy.clusters.l1dcache.ReadReq.mshrMissLatency::processor.cores.core.data     93783456                       # number of ReadReq MSHR miss ticks (Tick)
board.cache_hierarchy.clusters.l1dcache.ReadReq.mshrMissLatency::total     93783456                       # number of ReadReq MSHR miss ticks (Tick)
board.cache_hierarchy.clusters.l1dcache.ReadReq.mshrMissRate::processor.cores.core.data     0.003042                       # mshr miss rate for ReadReq accesses (Ratio)
board.cache_hierarchy.clusters.l1dcache.ReadReq.mshrMissRate::total     0.003042                       # mshr miss rate for ReadReq accesses (Ratio)
board.cache_hierarchy.clusters.l1dcache.ReadReq.avgMshrMissLatency::processor.cores.core.data 10710.764733                       # average ReadReq mshr miss latency ((Tick/Count))
board.cache_hierarchy.clusters.l1dcache.ReadReq.avgMshrMissLatency::total 10710.764733                       # average ReadReq mshr miss latency ((Tick/Count))
board.cache_hierarchy.clusters.l1dcache.StoreCondReq.hits::processor.cores.core.data         4159                       # number of StoreCondReq hits (Count)
board.cache_hierarchy.clusters.l1dcache.StoreCondReq.hits::total         4159                       # number of StoreCondReq hits (Count)
board.cache_hierarchy.clusters.l1dcache.StoreCondReq.misses::processor.cores.core.data           23                       # number of StoreCondReq misses (Count)
board.cache_hierarchy.clusters.l1dcache.StoreCondReq.misses::total           23                       # number of StoreCondReq misses (Count)
board.cache_hierarchy.clusters.l1dcache.StoreCondReq.missLatency::processor.cores.core.data       120213                       # number of StoreCondReq miss ticks (Tick)
board.cache_hierarchy.clusters.l1dcache.StoreCondReq.missLatency::total       120213                       # number of StoreCondReq miss ticks (Tick)
board.cache_hierarchy.clusters.l1dcache.StoreCondReq.accesses::processor.cores.core.data         4182                       # number of StoreCondReq accesses(hits+misses) (Count)
board.cache_hierarchy.clusters.l1dcache.StoreCondReq.accesses::total         4182                       # number of StoreCondReq accesses(hits+misses) (Count)
board.cache_hierarchy.clusters.l1dcache.StoreCondReq.missRate::processor.cores.core.data     0.005500                       # miss rate for StoreCondReq accesses (Ratio)
board.cache_hierarchy.clusters.l1dcache.StoreCondReq.missRate::total     0.005500                       # miss rate for StoreCondReq accesses (Ratio)
board.cache_hierarchy.clusters.l1dcache.StoreCondReq.avgMissLatency::processor.cores.core.data  5226.652174                       # average StoreCondReq miss latency ((Tick/Count))
board.cache_hierarchy.clusters.l1dcache.StoreCondReq.avgMissLatency::total  5226.652174                       # average StoreCondReq miss latency ((Tick/Count))
board.cache_hierarchy.clusters.l1dcache.StoreCondReq.mshrMisses::processor.cores.core.data           23                       # number of StoreCondReq MSHR misses (Count)
board.cache_hierarchy.clusters.l1dcache.StoreCondReq.mshrMisses::total           23                       # number of StoreCondReq MSHR misses (Count)
board.cache_hierarchy.clusters.l1dcache.StoreCondReq.mshrMissLatency::processor.cores.core.data       112554                       # number of StoreCondReq MSHR miss ticks (Tick)
board.cache_hierarchy.clusters.l1dcache.StoreCondReq.mshrMissLatency::total       112554                       # number of StoreCondReq MSHR miss ticks (Tick)
board.cache_hierarchy.clusters.l1dcache.StoreCondReq.mshrMissRate::processor.cores.core.data     0.005500                       # mshr miss rate for StoreCondReq accesses (Ratio)
board.cache_hierarchy.clusters.l1dcache.StoreCondReq.mshrMissRate::total     0.005500                       # mshr miss rate for StoreCondReq accesses (Ratio)
board.cache_hierarchy.clusters.l1dcache.StoreCondReq.avgMshrMissLatency::processor.cores.core.data  4893.652174                       # average StoreCondReq mshr miss latency ((Tick/Count))
board.cache_hierarchy.clusters.l1dcache.StoreCondReq.avgMshrMissLatency::total  4893.652174                       # average StoreCondReq mshr miss latency ((Tick/Count))
board.cache_hierarchy.clusters.l1dcache.SwapReq.hits::processor.cores.core.data        66313                       # number of SwapReq hits (Count)
board.cache_hierarchy.clusters.l1dcache.SwapReq.hits::total        66313                       # number of SwapReq hits (Count)
board.cache_hierarchy.clusters.l1dcache.SwapReq.misses::processor.cores.core.data          754                       # number of SwapReq misses (Count)
board.cache_hierarchy.clusters.l1dcache.SwapReq.misses::total          754                       # number of SwapReq misses (Count)
board.cache_hierarchy.clusters.l1dcache.SwapReq.missLatency::processor.cores.core.data      3704625                       # number of SwapReq miss ticks (Tick)
board.cache_hierarchy.clusters.l1dcache.SwapReq.missLatency::total      3704625                       # number of SwapReq miss ticks (Tick)
board.cache_hierarchy.clusters.l1dcache.SwapReq.accesses::processor.cores.core.data        67067                       # number of SwapReq accesses(hits+misses) (Count)
board.cache_hierarchy.clusters.l1dcache.SwapReq.accesses::total        67067                       # number of SwapReq accesses(hits+misses) (Count)
board.cache_hierarchy.clusters.l1dcache.SwapReq.missRate::processor.cores.core.data     0.011242                       # miss rate for SwapReq accesses (Ratio)
board.cache_hierarchy.clusters.l1dcache.SwapReq.missRate::total     0.011242                       # miss rate for SwapReq accesses (Ratio)
board.cache_hierarchy.clusters.l1dcache.SwapReq.avgMissLatency::processor.cores.core.data  4913.295756                       # average SwapReq miss latency ((Tick/Count))
board.cache_hierarchy.clusters.l1dcache.SwapReq.avgMissLatency::total  4913.295756                       # average SwapReq miss latency ((Tick/Count))
board.cache_hierarchy.clusters.l1dcache.SwapReq.mshrMisses::processor.cores.core.data          754                       # number of SwapReq MSHR misses (Count)
board.cache_hierarchy.clusters.l1dcache.SwapReq.mshrMisses::total          754                       # number of SwapReq MSHR misses (Count)
board.cache_hierarchy.clusters.l1dcache.SwapReq.mshrMissLatency::processor.cores.core.data      3453543                       # number of SwapReq MSHR miss ticks (Tick)
board.cache_hierarchy.clusters.l1dcache.SwapReq.mshrMissLatency::total      3453543                       # number of SwapReq MSHR miss ticks (Tick)
board.cache_hierarchy.clusters.l1dcache.SwapReq.mshrMissRate::processor.cores.core.data     0.011242                       # mshr miss rate for SwapReq accesses (Ratio)
board.cache_hierarchy.clusters.l1dcache.SwapReq.mshrMissRate::total     0.011242                       # mshr miss rate for SwapReq accesses (Ratio)
board.cache_hierarchy.clusters.l1dcache.SwapReq.avgMshrMissLatency::processor.cores.core.data  4580.295756                       # average SwapReq mshr miss latency ((Tick/Count))
board.cache_hierarchy.clusters.l1dcache.SwapReq.avgMshrMissLatency::total  4580.295756                       # average SwapReq mshr miss latency ((Tick/Count))
board.cache_hierarchy.clusters.l1dcache.WriteReq.hits::processor.cores.core.data       750803                       # number of WriteReq hits (Count)
board.cache_hierarchy.clusters.l1dcache.WriteReq.hits::total       750803                       # number of WriteReq hits (Count)
board.cache_hierarchy.clusters.l1dcache.WriteReq.misses::processor.cores.core.data        22720                       # number of WriteReq misses (Count)
board.cache_hierarchy.clusters.l1dcache.WriteReq.misses::total        22720                       # number of WriteReq misses (Count)
board.cache_hierarchy.clusters.l1dcache.WriteReq.missLatency::processor.cores.core.data    640458567                       # number of WriteReq miss ticks (Tick)
board.cache_hierarchy.clusters.l1dcache.WriteReq.missLatency::total    640458567                       # number of WriteReq miss ticks (Tick)
board.cache_hierarchy.clusters.l1dcache.WriteReq.accesses::processor.cores.core.data       773523                       # number of WriteReq accesses(hits+misses) (Count)
board.cache_hierarchy.clusters.l1dcache.WriteReq.accesses::total       773523                       # number of WriteReq accesses(hits+misses) (Count)
board.cache_hierarchy.clusters.l1dcache.WriteReq.missRate::processor.cores.core.data     0.029372                       # miss rate for WriteReq accesses (Ratio)
board.cache_hierarchy.clusters.l1dcache.WriteReq.missRate::total     0.029372                       # miss rate for WriteReq accesses (Ratio)
board.cache_hierarchy.clusters.l1dcache.WriteReq.avgMissLatency::processor.cores.core.data 28189.197491                       # average WriteReq miss latency ((Tick/Count))
board.cache_hierarchy.clusters.l1dcache.WriteReq.avgMissLatency::total 28189.197491                       # average WriteReq miss latency ((Tick/Count))
board.cache_hierarchy.clusters.l1dcache.WriteReq.mshrHits::processor.cores.core.data        11282                       # number of WriteReq MSHR hits (Count)
board.cache_hierarchy.clusters.l1dcache.WriteReq.mshrHits::total        11282                       # number of WriteReq MSHR hits (Count)
board.cache_hierarchy.clusters.l1dcache.WriteReq.mshrMisses::processor.cores.core.data        11438                       # number of WriteReq MSHR misses (Count)
board.cache_hierarchy.clusters.l1dcache.WriteReq.mshrMisses::total        11438                       # number of WriteReq MSHR misses (Count)
board.cache_hierarchy.clusters.l1dcache.WriteReq.mshrMissLatency::processor.cores.core.data    238321440                       # number of WriteReq MSHR miss ticks (Tick)
board.cache_hierarchy.clusters.l1dcache.WriteReq.mshrMissLatency::total    238321440                       # number of WriteReq MSHR miss ticks (Tick)
board.cache_hierarchy.clusters.l1dcache.WriteReq.mshrMissRate::processor.cores.core.data     0.014787                       # mshr miss rate for WriteReq accesses (Ratio)
board.cache_hierarchy.clusters.l1dcache.WriteReq.mshrMissRate::total     0.014787                       # mshr miss rate for WriteReq accesses (Ratio)
board.cache_hierarchy.clusters.l1dcache.WriteReq.avgMshrMissLatency::processor.cores.core.data 20835.936353                       # average WriteReq mshr miss latency ((Tick/Count))
board.cache_hierarchy.clusters.l1dcache.WriteReq.avgMshrMissLatency::total 20835.936353                       # average WriteReq mshr miss latency ((Tick/Count))
board.cache_hierarchy.clusters.l1dcache.power_state.pwrStateResidencyTicks::UNDEFINED   4009567752                       # Cumulative time (in ticks) in various power states (Tick)
board.cache_hierarchy.clusters.l1dcache.prefetcher.demandMshrMisses        20194                       # demands not covered by prefetchs (Count)
board.cache_hierarchy.clusters.l1dcache.prefetcher.pfIssued        91536                       # number of hwpf issued (Count)
board.cache_hierarchy.clusters.l1dcache.prefetcher.pfUnused         3953                       # number of HardPF blocks evicted w/o reference (Count)
board.cache_hierarchy.clusters.l1dcache.prefetcher.pfUseful        18660                       # number of useful prefetch (Count)
board.cache_hierarchy.clusters.l1dcache.prefetcher.pfUsefulButMiss          705                       # number of hit on prefetch but cache block is not in an usable state (Count)
board.cache_hierarchy.clusters.l1dcache.prefetcher.accuracy     0.203854                       # accuracy of the prefetcher (Count)
board.cache_hierarchy.clusters.l1dcache.prefetcher.coverage     0.480259                       # coverage brought by this prefetcher (Count)
board.cache_hierarchy.clusters.l1dcache.prefetcher.pfHitInCache        50646                       # number of prefetches hitting in cache (Count)
board.cache_hierarchy.clusters.l1dcache.prefetcher.pfHitInMSHR        17955                       # number of prefetches hitting in a MSHR (Count)
board.cache_hierarchy.clusters.l1dcache.prefetcher.pfHitInWB            0                       # number of prefetches hit in the Write Buffer (Count)
board.cache_hierarchy.clusters.l1dcache.prefetcher.pfLate        68601                       # number of late prefetches (hitting in cache, MSHR or WB) (Count)
board.cache_hierarchy.clusters.l1dcache.prefetcher.pfIdentified       108667                       # number of prefetch candidates identified (Count)
board.cache_hierarchy.clusters.l1dcache.prefetcher.pfBufferHit        14407                       # number of redundant prefetches already in prefetch queue (Count)
board.cache_hierarchy.clusters.l1dcache.prefetcher.pfInCache            0                       # number of redundant prefetches already in cache/mshr dropped (Count)
board.cache_hierarchy.clusters.l1dcache.prefetcher.pfRemovedDemand          201                       # number of prefetches dropped due to a demand for the same address (Count)
board.cache_hierarchy.clusters.l1dcache.prefetcher.pfRemovedFull            0                       # number of prefetches dropped due to prefetch queue size (Count)
board.cache_hierarchy.clusters.l1dcache.prefetcher.pfSpanPage         7953                       # number of prefetches that crossed the page (Count)
board.cache_hierarchy.clusters.l1dcache.prefetcher.pfUsefulSpanPage         2989                       # number of prefetches that is useful and crossed the page (Count)
board.cache_hierarchy.clusters.l1dcache.prefetcher.power_state.pwrStateResidencyTicks::UNDEFINED   4009567752                       # Cumulative time (in ticks) in various power states (Tick)
board.cache_hierarchy.clusters.l1dcache.tags.tagsInUse   509.144469                       # Average ticks per tags in use ((Tick/Count))
board.cache_hierarchy.clusters.l1dcache.tags.totalRefs      3721644                       # Total number of references to valid blocks. (Count)
board.cache_hierarchy.clusters.l1dcache.tags.sampledRefs        41578                       # Sample count of references to valid blocks. (Count)
board.cache_hierarchy.clusters.l1dcache.tags.avgRefs    89.509933                       # Average number of references to valid blocks. ((Count/Count))
board.cache_hierarchy.clusters.l1dcache.tags.warmupTick       215784                       # The tick when the warmup percentage was hit. (Tick)
board.cache_hierarchy.clusters.l1dcache.tags.occupancies::cache_hierarchy.clusters.l1dcache.prefetcher   345.288371                       # Average occupied blocks per tick, per requestor ((Count/Tick))
board.cache_hierarchy.clusters.l1dcache.tags.occupancies::processor.cores.core.data   163.856098                       # Average occupied blocks per tick, per requestor ((Count/Tick))
board.cache_hierarchy.clusters.l1dcache.tags.avgOccs::cache_hierarchy.clusters.l1dcache.prefetcher     0.674391                       # Average percentage of cache occupancy ((Ratio/Tick))
board.cache_hierarchy.clusters.l1dcache.tags.avgOccs::processor.cores.core.data     0.320031                       # Average percentage of cache occupancy ((Ratio/Tick))
board.cache_hierarchy.clusters.l1dcache.tags.avgOccs::total     0.994423                       # Average percentage of cache occupancy ((Ratio/Tick))
board.cache_hierarchy.clusters.l1dcache.tags.occupanciesTaskId::1022          121                       # Occupied blocks per task id (Count)
board.cache_hierarchy.clusters.l1dcache.tags.occupanciesTaskId::1024          391                       # Occupied blocks per task id (Count)
board.cache_hierarchy.clusters.l1dcache.tags.ageTaskId_1022::0           34                       # Occupied blocks per task id, per block age (Count)
board.cache_hierarchy.clusters.l1dcache.tags.ageTaskId_1022::1           87                       # Occupied blocks per task id, per block age (Count)
board.cache_hierarchy.clusters.l1dcache.tags.ageTaskId_1024::0          167                       # Occupied blocks per task id, per block age (Count)
board.cache_hierarchy.clusters.l1dcache.tags.ageTaskId_1024::1          220                       # Occupied blocks per task id, per block age (Count)
board.cache_hierarchy.clusters.l1dcache.tags.ageTaskId_1024::2            3                       # Occupied blocks per task id, per block age (Count)
board.cache_hierarchy.clusters.l1dcache.tags.ageTaskId_1024::3            1                       # Occupied blocks per task id, per block age (Count)
board.cache_hierarchy.clusters.l1dcache.tags.ratioOccsTaskId::1022     0.236328                       # Ratio of occupied blocks and all blocks, per task id (Ratio)
board.cache_hierarchy.clusters.l1dcache.tags.ratioOccsTaskId::1024     0.763672                       # Ratio of occupied blocks and all blocks, per task id (Ratio)
board.cache_hierarchy.clusters.l1dcache.tags.tagAccesses     29863354                       # Number of tag accesses (Count)
board.cache_hierarchy.clusters.l1dcache.tags.dataAccesses     29863354                       # Number of data accesses (Count)
board.cache_hierarchy.clusters.l1dcache.tags.power_state.pwrStateResidencyTicks::UNDEFINED   4009567752                       # Cumulative time (in ticks) in various power states (Tick)
board.cache_hierarchy.clusters.l1icache.demandHits::processor.cores.core.inst      4195279                       # number of demand (read+write) hits (Count)
board.cache_hierarchy.clusters.l1icache.demandHits::total      4195279                       # number of demand (read+write) hits (Count)
board.cache_hierarchy.clusters.l1icache.overallHits::processor.cores.core.inst      4195279                       # number of overall hits (Count)
board.cache_hierarchy.clusters.l1icache.overallHits::total      4195279                       # number of overall hits (Count)
board.cache_hierarchy.clusters.l1icache.demandMisses::processor.cores.core.inst         3153                       # number of demand (read+write) misses (Count)
board.cache_hierarchy.clusters.l1icache.demandMisses::total         3153                       # number of demand (read+write) misses (Count)
board.cache_hierarchy.clusters.l1icache.overallMisses::processor.cores.core.inst         3153                       # number of overall misses (Count)
board.cache_hierarchy.clusters.l1icache.overallMisses::total         3153                       # number of overall misses (Count)
board.cache_hierarchy.clusters.l1icache.demandMissLatency::processor.cores.core.inst    175936887                       # number of demand (read+write) miss ticks (Tick)
board.cache_hierarchy.clusters.l1icache.demandMissLatency::total    175936887                       # number of demand (read+write) miss ticks (Tick)
board.cache_hierarchy.clusters.l1icache.overallMissLatency::processor.cores.core.inst    175936887                       # number of overall miss ticks (Tick)
board.cache_hierarchy.clusters.l1icache.overallMissLatency::total    175936887                       # number of overall miss ticks (Tick)
board.cache_hierarchy.clusters.l1icache.demandAccesses::processor.cores.core.inst      4198432                       # number of demand (read+write) accesses (Count)
board.cache_hierarchy.clusters.l1icache.demandAccesses::total      4198432                       # number of demand (read+write) accesses (Count)
board.cache_hierarchy.clusters.l1icache.overallAccesses::processor.cores.core.inst      4198432                       # number of overall (read+write) accesses (Count)
board.cache_hierarchy.clusters.l1icache.overallAccesses::total      4198432                       # number of overall (read+write) accesses (Count)
board.cache_hierarchy.clusters.l1icache.demandMissRate::processor.cores.core.inst     0.000751                       # miss rate for demand accesses (Ratio)
board.cache_hierarchy.clusters.l1icache.demandMissRate::total     0.000751                       # miss rate for demand accesses (Ratio)
board.cache_hierarchy.clusters.l1icache.overallMissRate::processor.cores.core.inst     0.000751                       # miss rate for overall accesses (Ratio)
board.cache_hierarchy.clusters.l1icache.overallMissRate::total     0.000751                       # miss rate for overall accesses (Ratio)
board.cache_hierarchy.clusters.l1icache.demandAvgMissLatency::processor.cores.core.inst 55799.837298                       # average overall miss latency in ticks ((Tick/Count))
board.cache_hierarchy.clusters.l1icache.demandAvgMissLatency::total 55799.837298                       # average overall miss latency in ticks ((Tick/Count))
board.cache_hierarchy.clusters.l1icache.overallAvgMissLatency::processor.cores.core.inst 55799.837298                       # average overall miss latency ((Tick/Count))
board.cache_hierarchy.clusters.l1icache.overallAvgMissLatency::total 55799.837298                       # average overall miss latency ((Tick/Count))
board.cache_hierarchy.clusters.l1icache.blockedCycles::no_mshrs            0                       # number of cycles access was blocked (Cycle)
board.cache_hierarchy.clusters.l1icache.blockedCycles::no_targets            0                       # number of cycles access was blocked (Cycle)
board.cache_hierarchy.clusters.l1icache.blockedCauses::no_mshrs            0                       # number of times access was blocked (Count)
board.cache_hierarchy.clusters.l1icache.blockedCauses::no_targets            0                       # number of times access was blocked (Count)
board.cache_hierarchy.clusters.l1icache.avgBlocked::no_mshrs          nan                       # average number of cycles each access was blocked ((Cycle/Count))
board.cache_hierarchy.clusters.l1icache.avgBlocked::no_targets          nan                       # average number of cycles each access was blocked ((Cycle/Count))
board.cache_hierarchy.clusters.l1icache.writebacks::writebacks         1746                       # number of writebacks (Count)
board.cache_hierarchy.clusters.l1icache.writebacks::total         1746                       # number of writebacks (Count)
board.cache_hierarchy.clusters.l1icache.demandMshrHits::processor.cores.core.inst          895                       # number of demand (read+write) MSHR hits (Count)
board.cache_hierarchy.clusters.l1icache.demandMshrHits::total          895                       # number of demand (read+write) MSHR hits (Count)
board.cache_hierarchy.clusters.l1icache.overallMshrHits::processor.cores.core.inst          895                       # number of overall MSHR hits (Count)
board.cache_hierarchy.clusters.l1icache.overallMshrHits::total          895                       # number of overall MSHR hits (Count)
board.cache_hierarchy.clusters.l1icache.demandMshrMisses::processor.cores.core.inst         2258                       # number of demand (read+write) MSHR misses (Count)
board.cache_hierarchy.clusters.l1icache.demandMshrMisses::total         2258                       # number of demand (read+write) MSHR misses (Count)
board.cache_hierarchy.clusters.l1icache.overallMshrMisses::processor.cores.core.inst         2258                       # number of overall MSHR misses (Count)
board.cache_hierarchy.clusters.l1icache.overallMshrMisses::total         2258                       # number of overall MSHR misses (Count)
board.cache_hierarchy.clusters.l1icache.demandMshrMissLatency::processor.cores.core.inst    127933272                       # number of demand (read+write) MSHR miss ticks (Tick)
board.cache_hierarchy.clusters.l1icache.demandMshrMissLatency::total    127933272                       # number of demand (read+write) MSHR miss ticks (Tick)
board.cache_hierarchy.clusters.l1icache.overallMshrMissLatency::processor.cores.core.inst    127933272                       # number of overall MSHR miss ticks (Tick)
board.cache_hierarchy.clusters.l1icache.overallMshrMissLatency::total    127933272                       # number of overall MSHR miss ticks (Tick)
board.cache_hierarchy.clusters.l1icache.demandMshrMissRate::processor.cores.core.inst     0.000538                       # mshr miss ratio for demand accesses (Ratio)
board.cache_hierarchy.clusters.l1icache.demandMshrMissRate::total     0.000538                       # mshr miss ratio for demand accesses (Ratio)
board.cache_hierarchy.clusters.l1icache.overallMshrMissRate::processor.cores.core.inst     0.000538                       # mshr miss ratio for overall accesses (Ratio)
board.cache_hierarchy.clusters.l1icache.overallMshrMissRate::total     0.000538                       # mshr miss ratio for overall accesses (Ratio)
board.cache_hierarchy.clusters.l1icache.demandAvgMshrMissLatency::processor.cores.core.inst 56657.782108                       # average overall mshr miss latency ((Tick/Count))
board.cache_hierarchy.clusters.l1icache.demandAvgMshrMissLatency::total 56657.782108                       # average overall mshr miss latency ((Tick/Count))
board.cache_hierarchy.clusters.l1icache.overallAvgMshrMissLatency::processor.cores.core.inst 56657.782108                       # average overall mshr miss latency ((Tick/Count))
board.cache_hierarchy.clusters.l1icache.overallAvgMshrMissLatency::total 56657.782108                       # average overall mshr miss latency ((Tick/Count))
board.cache_hierarchy.clusters.l1icache.replacements         1746                       # number of replacements (Count)
board.cache_hierarchy.clusters.l1icache.ReadReq.hits::processor.cores.core.inst      4195279                       # number of ReadReq hits (Count)
board.cache_hierarchy.clusters.l1icache.ReadReq.hits::total      4195279                       # number of ReadReq hits (Count)
board.cache_hierarchy.clusters.l1icache.ReadReq.misses::processor.cores.core.inst         3153                       # number of ReadReq misses (Count)
board.cache_hierarchy.clusters.l1icache.ReadReq.misses::total         3153                       # number of ReadReq misses (Count)
board.cache_hierarchy.clusters.l1icache.ReadReq.missLatency::processor.cores.core.inst    175936887                       # number of ReadReq miss ticks (Tick)
board.cache_hierarchy.clusters.l1icache.ReadReq.missLatency::total    175936887                       # number of ReadReq miss ticks (Tick)
board.cache_hierarchy.clusters.l1icache.ReadReq.accesses::processor.cores.core.inst      4198432                       # number of ReadReq accesses(hits+misses) (Count)
board.cache_hierarchy.clusters.l1icache.ReadReq.accesses::total      4198432                       # number of ReadReq accesses(hits+misses) (Count)
board.cache_hierarchy.clusters.l1icache.ReadReq.missRate::processor.cores.core.inst     0.000751                       # miss rate for ReadReq accesses (Ratio)
board.cache_hierarchy.clusters.l1icache.ReadReq.missRate::total     0.000751                       # miss rate for ReadReq accesses (Ratio)
board.cache_hierarchy.clusters.l1icache.ReadReq.avgMissLatency::processor.cores.core.inst 55799.837298                       # average ReadReq miss latency ((Tick/Count))
board.cache_hierarchy.clusters.l1icache.ReadReq.avgMissLatency::total 55799.837298                       # average ReadReq miss latency ((Tick/Count))
board.cache_hierarchy.clusters.l1icache.ReadReq.mshrHits::processor.cores.core.inst          895                       # number of ReadReq MSHR hits (Count)
board.cache_hierarchy.clusters.l1icache.ReadReq.mshrHits::total          895                       # number of ReadReq MSHR hits (Count)
board.cache_hierarchy.clusters.l1icache.ReadReq.mshrMisses::processor.cores.core.inst         2258                       # number of ReadReq MSHR misses (Count)
board.cache_hierarchy.clusters.l1icache.ReadReq.mshrMisses::total         2258                       # number of ReadReq MSHR misses (Count)
board.cache_hierarchy.clusters.l1icache.ReadReq.mshrMissLatency::processor.cores.core.inst    127933272                       # number of ReadReq MSHR miss ticks (Tick)
board.cache_hierarchy.clusters.l1icache.ReadReq.mshrMissLatency::total    127933272                       # number of ReadReq MSHR miss ticks (Tick)
board.cache_hierarchy.clusters.l1icache.ReadReq.mshrMissRate::processor.cores.core.inst     0.000538                       # mshr miss rate for ReadReq accesses (Ratio)
board.cache_hierarchy.clusters.l1icache.ReadReq.mshrMissRate::total     0.000538                       # mshr miss rate for ReadReq accesses (Ratio)
board.cache_hierarchy.clusters.l1icache.ReadReq.avgMshrMissLatency::processor.cores.core.inst 56657.782108                       # average ReadReq mshr miss latency ((Tick/Count))
board.cache_hierarchy.clusters.l1icache.ReadReq.avgMshrMissLatency::total 56657.782108                       # average ReadReq mshr miss latency ((Tick/Count))
board.cache_hierarchy.clusters.l1icache.power_state.pwrStateResidencyTicks::UNDEFINED   4009567752                       # Cumulative time (in ticks) in various power states (Tick)
board.cache_hierarchy.clusters.l1icache.prefetcher.demandMshrMisses         2258                       # demands not covered by prefetchs (Count)
board.cache_hierarchy.clusters.l1icache.prefetcher.pfIssued            0                       # number of hwpf issued (Count)
board.cache_hierarchy.clusters.l1icache.prefetcher.pfUseful            0                       # number of useful prefetch (Count)
board.cache_hierarchy.clusters.l1icache.prefetcher.pfUsefulButMiss            0                       # number of hit on prefetch but cache block is not in an usable state (Count)
board.cache_hierarchy.clusters.l1icache.prefetcher.accuracy          nan                       # accuracy of the prefetcher (Count)
board.cache_hierarchy.clusters.l1icache.prefetcher.coverage            0                       # coverage brought by this prefetcher (Count)
board.cache_hierarchy.clusters.l1icache.prefetcher.pfHitInCache            0                       # number of prefetches hitting in cache (Count)
board.cache_hierarchy.clusters.l1icache.prefetcher.pfHitInMSHR            0                       # number of prefetches hitting in a MSHR (Count)
board.cache_hierarchy.clusters.l1icache.prefetcher.pfHitInWB            0                       # number of prefetches hit in the Write Buffer (Count)
board.cache_hierarchy.clusters.l1icache.prefetcher.pfLate            0                       # number of late prefetches (hitting in cache, MSHR or WB) (Count)
board.cache_hierarchy.clusters.l1icache.prefetcher.pfIdentified            0                       # number of prefetch candidates identified (Count)
board.cache_hierarchy.clusters.l1icache.prefetcher.pfBufferHit            0                       # number of redundant prefetches already in prefetch queue (Count)
board.cache_hierarchy.clusters.l1icache.prefetcher.pfInCache            0                       # number of redundant prefetches already in cache/mshr dropped (Count)
board.cache_hierarchy.clusters.l1icache.prefetcher.pfRemovedDemand            0                       # number of prefetches dropped due to a demand for the same address (Count)
board.cache_hierarchy.clusters.l1icache.prefetcher.pfRemovedFull            0                       # number of prefetches dropped due to prefetch queue size (Count)
board.cache_hierarchy.clusters.l1icache.prefetcher.pfSpanPage            0                       # number of prefetches that crossed the page (Count)
board.cache_hierarchy.clusters.l1icache.prefetcher.pfUsefulSpanPage            0                       # number of prefetches that is useful and crossed the page (Count)
board.cache_hierarchy.clusters.l1icache.prefetcher.power_state.pwrStateResidencyTicks::UNDEFINED   4009567752                       # Cumulative time (in ticks) in various power states (Tick)
board.cache_hierarchy.clusters.l1icache.tags.tagsInUse   508.634271                       # Average ticks per tags in use ((Tick/Count))
board.cache_hierarchy.clusters.l1icache.tags.totalRefs      4197537                       # Total number of references to valid blocks. (Count)
board.cache_hierarchy.clusters.l1icache.tags.sampledRefs         2258                       # Sample count of references to valid blocks. (Count)
board.cache_hierarchy.clusters.l1icache.tags.avgRefs  1858.962356                       # Average number of references to valid blocks. ((Count/Count))
board.cache_hierarchy.clusters.l1icache.tags.warmupTick        74592                       # The tick when the warmup percentage was hit. (Tick)
board.cache_hierarchy.clusters.l1icache.tags.occupancies::processor.cores.core.inst   508.634271                       # Average occupied blocks per tick, per requestor ((Count/Tick))
board.cache_hierarchy.clusters.l1icache.tags.avgOccs::processor.cores.core.inst     0.993426                       # Average percentage of cache occupancy ((Ratio/Tick))
board.cache_hierarchy.clusters.l1icache.tags.avgOccs::total     0.993426                       # Average percentage of cache occupancy ((Ratio/Tick))
board.cache_hierarchy.clusters.l1icache.tags.occupanciesTaskId::1024          512                       # Occupied blocks per task id (Count)
board.cache_hierarchy.clusters.l1icache.tags.ageTaskId_1024::0          106                       # Occupied blocks per task id, per block age (Count)
board.cache_hierarchy.clusters.l1icache.tags.ageTaskId_1024::1            2                       # Occupied blocks per task id, per block age (Count)
board.cache_hierarchy.clusters.l1icache.tags.ageTaskId_1024::2          196                       # Occupied blocks per task id, per block age (Count)
board.cache_hierarchy.clusters.l1icache.tags.ageTaskId_1024::3          208                       # Occupied blocks per task id, per block age (Count)
board.cache_hierarchy.clusters.l1icache.tags.ratioOccsTaskId::1024            1                       # Ratio of occupied blocks and all blocks, per task id (Ratio)
board.cache_hierarchy.clusters.l1icache.tags.tagAccesses     33589714                       # Number of tag accesses (Count)
board.cache_hierarchy.clusters.l1icache.tags.dataAccesses     33589714                       # Number of data accesses (Count)
board.cache_hierarchy.clusters.l1icache.tags.power_state.pwrStateResidencyTicks::UNDEFINED   4009567752                       # Cumulative time (in ticks) in various power states (Tick)
board.cache_hierarchy.clusters.l2_5_bus.transDist::ReadResp        28306                       # Transaction distribution (Count)
board.cache_hierarchy.clusters.l2_5_bus.transDist::WritebackDirty        32145                       # Transaction distribution (Count)
board.cache_hierarchy.clusters.l2_5_bus.transDist::CleanEvict        15572                       # Transaction distribution (Count)
board.cache_hierarchy.clusters.l2_5_bus.transDist::HardPFReq         3496                       # Transaction distribution (Count)
board.cache_hierarchy.clusters.l2_5_bus.transDist::UpgradeReq          223                       # Transaction distribution (Count)
board.cache_hierarchy.clusters.l2_5_bus.transDist::SCUpgradeReq            3                       # Transaction distribution (Count)
board.cache_hierarchy.clusters.l2_5_bus.transDist::UpgradeResp          226                       # Transaction distribution (Count)
board.cache_hierarchy.clusters.l2_5_bus.transDist::ReadExReq         4193                       # Transaction distribution (Count)
board.cache_hierarchy.clusters.l2_5_bus.transDist::ReadExResp         4193                       # Transaction distribution (Count)
board.cache_hierarchy.clusters.l2_5_bus.transDist::ReadSharedReq        28306                       # Transaction distribution (Count)
board.cache_hierarchy.clusters.l2_5_bus.transDist::InvalidateReq            6                       # Transaction distribution (Count)
board.cache_hierarchy.clusters.l2_5_bus.transDist::InvalidateResp            6                       # Transaction distribution (Count)
board.cache_hierarchy.clusters.l2_5_bus.pktCount_board.cache_hierarchy.clusters.l2cache.mem_side_port::board.cache_hierarchy.clusters.l2_5_cache.cpu_side_port        97891                       # Packet count per connected requestor and responder (Count)
board.cache_hierarchy.clusters.l2_5_bus.pktSize_board.cache_hierarchy.clusters.l2cache.mem_side_port::board.cache_hierarchy.clusters.l2_5_cache.cpu_side_port      3875328                       # Cumulative packet size per connected requestor and responder (Byte)
board.cache_hierarchy.clusters.l2_5_bus.snoops        18784                       # Total snoops (Count)
board.cache_hierarchy.clusters.l2_5_bus.snoopTraffic       261888                       # Total snoop traffic (Byte)
board.cache_hierarchy.clusters.l2_5_bus.snoopFanout::samples        51527                       # Request fanout histogram (Count)
board.cache_hierarchy.clusters.l2_5_bus.snoopFanout::mean     0.065519                       # Request fanout histogram (Count)
board.cache_hierarchy.clusters.l2_5_bus.snoopFanout::stdev     0.247442                       # Request fanout histogram (Count)
board.cache_hierarchy.clusters.l2_5_bus.snoopFanout::underflows            0      0.00%      0.00% # Request fanout histogram (Count)
board.cache_hierarchy.clusters.l2_5_bus.snoopFanout::0        48151     93.45%     93.45% # Request fanout histogram (Count)
board.cache_hierarchy.clusters.l2_5_bus.snoopFanout::1         3376      6.55%    100.00% # Request fanout histogram (Count)
board.cache_hierarchy.clusters.l2_5_bus.snoopFanout::overflows            0      0.00%    100.00% # Request fanout histogram (Count)
board.cache_hierarchy.clusters.l2_5_bus.snoopFanout::min_value            0                       # Request fanout histogram (Count)
board.cache_hierarchy.clusters.l2_5_bus.snoopFanout::max_value            1                       # Request fanout histogram (Count)
board.cache_hierarchy.clusters.l2_5_bus.snoopFanout::total        51527                       # Request fanout histogram (Count)
board.cache_hierarchy.clusters.l2_5_bus.power_state.pwrStateResidencyTicks::UNDEFINED   4009567752                       # Cumulative time (in ticks) in various power states (Tick)
board.cache_hierarchy.clusters.l2_5_bus.reqLayer0.occupancy     43653618                       # Layer occupancy (ticks) (Tick)
board.cache_hierarchy.clusters.l2_5_bus.reqLayer0.utilization          0.0                       # Layer utilization (Ratio)
board.cache_hierarchy.clusters.l2_5_bus.respLayer0.occupancy     32543757                       # Layer occupancy (ticks) (Tick)
board.cache_hierarchy.clusters.l2_5_bus.respLayer0.utilization          0.0                       # Layer utilization (Ratio)
board.cache_hierarchy.clusters.l2_5_bus.snoop_filter.totRequests        65174                       # Total number of requests made to the snoop filter. (Count)
board.cache_hierarchy.clusters.l2_5_bus.snoop_filter.hitSingleRequests        32658                       # Number of requests hitting in the snoop filter with a single holder of the requested data. (Count)
board.cache_hierarchy.clusters.l2_5_bus.snoop_filter.hitMultiRequests            0                       # Number of requests hitting in the snoop filter with multiple (>1) holders of the requested data. (Count)
board.cache_hierarchy.clusters.l2_5_bus.snoop_filter.totSnoops         3376                       # Total number of snoops made to the snoop filter. (Count)
board.cache_hierarchy.clusters.l2_5_bus.snoop_filter.hitSingleSnoops         3376                       # Number of snoops hitting in the snoop filter with a single holder of the requested data. (Count)
board.cache_hierarchy.clusters.l2_5_bus.snoop_filter.hitMultiSnoops            0                       # Number of snoops hitting in the snoop filter with multiple (>1) holders of the requested data. (Count)
board.cache_hierarchy.clusters.l2_5_cache.demandHits::cache_hierarchy.clusters.l1dcache.prefetcher         6520                       # number of demand (read+write) hits (Count)
board.cache_hierarchy.clusters.l2_5_cache.demandHits::cache_hierarchy.clusters.l2cache.prefetcher        12489                       # number of demand (read+write) hits (Count)
board.cache_hierarchy.clusters.l2_5_cache.demandHits::processor.cores.core.inst          127                       # number of demand (read+write) hits (Count)
board.cache_hierarchy.clusters.l2_5_cache.demandHits::processor.cores.core.data         5610                       # number of demand (read+write) hits (Count)
board.cache_hierarchy.clusters.l2_5_cache.demandHits::total        24746                       # number of demand (read+write) hits (Count)
board.cache_hierarchy.clusters.l2_5_cache.overallHits::cache_hierarchy.clusters.l1dcache.prefetcher         6520                       # number of overall hits (Count)
board.cache_hierarchy.clusters.l2_5_cache.overallHits::cache_hierarchy.clusters.l2cache.prefetcher        12489                       # number of overall hits (Count)
board.cache_hierarchy.clusters.l2_5_cache.overallHits::processor.cores.core.inst          127                       # number of overall hits (Count)
board.cache_hierarchy.clusters.l2_5_cache.overallHits::processor.cores.core.data         5610                       # number of overall hits (Count)
board.cache_hierarchy.clusters.l2_5_cache.overallHits::total        24746                       # number of overall hits (Count)
board.cache_hierarchy.clusters.l2_5_cache.demandMisses::cache_hierarchy.clusters.l1dcache.prefetcher         1450                       # number of demand (read+write) misses (Count)
board.cache_hierarchy.clusters.l2_5_cache.demandMisses::cache_hierarchy.clusters.l2cache.prefetcher         1322                       # number of demand (read+write) misses (Count)
board.cache_hierarchy.clusters.l2_5_cache.demandMisses::processor.cores.core.inst         1757                       # number of demand (read+write) misses (Count)
board.cache_hierarchy.clusters.l2_5_cache.demandMisses::processor.cores.core.data         3224                       # number of demand (read+write) misses (Count)
board.cache_hierarchy.clusters.l2_5_cache.demandMisses::total         7753                       # number of demand (read+write) misses (Count)
board.cache_hierarchy.clusters.l2_5_cache.overallMisses::cache_hierarchy.clusters.l1dcache.prefetcher         1450                       # number of overall misses (Count)
board.cache_hierarchy.clusters.l2_5_cache.overallMisses::cache_hierarchy.clusters.l2cache.prefetcher         1322                       # number of overall misses (Count)
board.cache_hierarchy.clusters.l2_5_cache.overallMisses::processor.cores.core.inst         1757                       # number of overall misses (Count)
board.cache_hierarchy.clusters.l2_5_cache.overallMisses::processor.cores.core.data         3224                       # number of overall misses (Count)
board.cache_hierarchy.clusters.l2_5_cache.overallMisses::total         7753                       # number of overall misses (Count)
board.cache_hierarchy.clusters.l2_5_cache.demandMissLatency::cache_hierarchy.clusters.l1dcache.prefetcher    125127251                       # number of demand (read+write) miss ticks (Tick)
board.cache_hierarchy.clusters.l2_5_cache.demandMissLatency::cache_hierarchy.clusters.l2cache.prefetcher     90578080                       # number of demand (read+write) miss ticks (Tick)
board.cache_hierarchy.clusters.l2_5_cache.demandMissLatency::processor.cores.core.inst    116258958                       # number of demand (read+write) miss ticks (Tick)
board.cache_hierarchy.clusters.l2_5_cache.demandMissLatency::processor.cores.core.data    214799985                       # number of demand (read+write) miss ticks (Tick)
board.cache_hierarchy.clusters.l2_5_cache.demandMissLatency::total    546764274                       # number of demand (read+write) miss ticks (Tick)
board.cache_hierarchy.clusters.l2_5_cache.overallMissLatency::cache_hierarchy.clusters.l1dcache.prefetcher    125127251                       # number of overall miss ticks (Tick)
board.cache_hierarchy.clusters.l2_5_cache.overallMissLatency::cache_hierarchy.clusters.l2cache.prefetcher     90578080                       # number of overall miss ticks (Tick)
board.cache_hierarchy.clusters.l2_5_cache.overallMissLatency::processor.cores.core.inst    116258958                       # number of overall miss ticks (Tick)
board.cache_hierarchy.clusters.l2_5_cache.overallMissLatency::processor.cores.core.data    214799985                       # number of overall miss ticks (Tick)
board.cache_hierarchy.clusters.l2_5_cache.overallMissLatency::total    546764274                       # number of overall miss ticks (Tick)
board.cache_hierarchy.clusters.l2_5_cache.demandAccesses::cache_hierarchy.clusters.l1dcache.prefetcher         7970                       # number of demand (read+write) accesses (Count)
board.cache_hierarchy.clusters.l2_5_cache.demandAccesses::cache_hierarchy.clusters.l2cache.prefetcher        13811                       # number of demand (read+write) accesses (Count)
board.cache_hierarchy.clusters.l2_5_cache.demandAccesses::processor.cores.core.inst         1884                       # number of demand (read+write) accesses (Count)
board.cache_hierarchy.clusters.l2_5_cache.demandAccesses::processor.cores.core.data         8834                       # number of demand (read+write) accesses (Count)
board.cache_hierarchy.clusters.l2_5_cache.demandAccesses::total        32499                       # number of demand (read+write) accesses (Count)
board.cache_hierarchy.clusters.l2_5_cache.overallAccesses::cache_hierarchy.clusters.l1dcache.prefetcher         7970                       # number of overall (read+write) accesses (Count)
board.cache_hierarchy.clusters.l2_5_cache.overallAccesses::cache_hierarchy.clusters.l2cache.prefetcher        13811                       # number of overall (read+write) accesses (Count)
board.cache_hierarchy.clusters.l2_5_cache.overallAccesses::processor.cores.core.inst         1884                       # number of overall (read+write) accesses (Count)
board.cache_hierarchy.clusters.l2_5_cache.overallAccesses::processor.cores.core.data         8834                       # number of overall (read+write) accesses (Count)
board.cache_hierarchy.clusters.l2_5_cache.overallAccesses::total        32499                       # number of overall (read+write) accesses (Count)
board.cache_hierarchy.clusters.l2_5_cache.demandMissRate::cache_hierarchy.clusters.l1dcache.prefetcher     0.181932                       # miss rate for demand accesses (Ratio)
board.cache_hierarchy.clusters.l2_5_cache.demandMissRate::cache_hierarchy.clusters.l2cache.prefetcher     0.095721                       # miss rate for demand accesses (Ratio)
board.cache_hierarchy.clusters.l2_5_cache.demandMissRate::processor.cores.core.inst     0.932590                       # miss rate for demand accesses (Ratio)
board.cache_hierarchy.clusters.l2_5_cache.demandMissRate::processor.cores.core.data     0.364954                       # miss rate for demand accesses (Ratio)
board.cache_hierarchy.clusters.l2_5_cache.demandMissRate::total     0.238561                       # miss rate for demand accesses (Ratio)
board.cache_hierarchy.clusters.l2_5_cache.overallMissRate::cache_hierarchy.clusters.l1dcache.prefetcher     0.181932                       # miss rate for overall accesses (Ratio)
board.cache_hierarchy.clusters.l2_5_cache.overallMissRate::cache_hierarchy.clusters.l2cache.prefetcher     0.095721                       # miss rate for overall accesses (Ratio)
board.cache_hierarchy.clusters.l2_5_cache.overallMissRate::processor.cores.core.inst     0.932590                       # miss rate for overall accesses (Ratio)
board.cache_hierarchy.clusters.l2_5_cache.overallMissRate::processor.cores.core.data     0.364954                       # miss rate for overall accesses (Ratio)
board.cache_hierarchy.clusters.l2_5_cache.overallMissRate::total     0.238561                       # miss rate for overall accesses (Ratio)
board.cache_hierarchy.clusters.l2_5_cache.demandAvgMissLatency::cache_hierarchy.clusters.l1dcache.prefetcher 86294.655862                       # average overall miss latency in ticks ((Tick/Count))
board.cache_hierarchy.clusters.l2_5_cache.demandAvgMissLatency::cache_hierarchy.clusters.l2cache.prefetcher 68515.945537                       # average overall miss latency in ticks ((Tick/Count))
board.cache_hierarchy.clusters.l2_5_cache.demandAvgMissLatency::processor.cores.core.inst 66169.014229                       # average overall miss latency in ticks ((Tick/Count))
board.cache_hierarchy.clusters.l2_5_cache.demandAvgMissLatency::processor.cores.core.data 66625.305521                       # average overall miss latency in ticks ((Tick/Count))
board.cache_hierarchy.clusters.l2_5_cache.demandAvgMissLatency::total 70522.929705                       # average overall miss latency in ticks ((Tick/Count))
board.cache_hierarchy.clusters.l2_5_cache.overallAvgMissLatency::cache_hierarchy.clusters.l1dcache.prefetcher 86294.655862                       # average overall miss latency ((Tick/Count))
board.cache_hierarchy.clusters.l2_5_cache.overallAvgMissLatency::cache_hierarchy.clusters.l2cache.prefetcher 68515.945537                       # average overall miss latency ((Tick/Count))
board.cache_hierarchy.clusters.l2_5_cache.overallAvgMissLatency::processor.cores.core.inst 66169.014229                       # average overall miss latency ((Tick/Count))
board.cache_hierarchy.clusters.l2_5_cache.overallAvgMissLatency::processor.cores.core.data 66625.305521                       # average overall miss latency ((Tick/Count))
board.cache_hierarchy.clusters.l2_5_cache.overallAvgMissLatency::total 70522.929705                       # average overall miss latency ((Tick/Count))
board.cache_hierarchy.clusters.l2_5_cache.blockedCycles::no_mshrs          547                       # number of cycles access was blocked (Cycle)
board.cache_hierarchy.clusters.l2_5_cache.blockedCycles::no_targets            0                       # number of cycles access was blocked (Cycle)
board.cache_hierarchy.clusters.l2_5_cache.blockedCauses::no_mshrs           17                       # number of times access was blocked (Count)
board.cache_hierarchy.clusters.l2_5_cache.blockedCauses::no_targets            0                       # number of times access was blocked (Count)
board.cache_hierarchy.clusters.l2_5_cache.avgBlocked::no_mshrs    32.176471                       # average number of cycles each access was blocked ((Cycle/Count))
board.cache_hierarchy.clusters.l2_5_cache.avgBlocked::no_targets          nan                       # average number of cycles each access was blocked ((Cycle/Count))
board.cache_hierarchy.clusters.l2_5_cache.writebacks::writebacks         4092                       # number of writebacks (Count)
board.cache_hierarchy.clusters.l2_5_cache.writebacks::total         4092                       # number of writebacks (Count)
board.cache_hierarchy.clusters.l2_5_cache.demandMshrHits::cache_hierarchy.clusters.l1dcache.prefetcher           12                       # number of demand (read+write) MSHR hits (Count)
board.cache_hierarchy.clusters.l2_5_cache.demandMshrHits::cache_hierarchy.clusters.l2cache.prefetcher          339                       # number of demand (read+write) MSHR hits (Count)
board.cache_hierarchy.clusters.l2_5_cache.demandMshrHits::processor.cores.core.data            3                       # number of demand (read+write) MSHR hits (Count)
board.cache_hierarchy.clusters.l2_5_cache.demandMshrHits::total          354                       # number of demand (read+write) MSHR hits (Count)
board.cache_hierarchy.clusters.l2_5_cache.overallMshrHits::cache_hierarchy.clusters.l1dcache.prefetcher           12                       # number of overall MSHR hits (Count)
board.cache_hierarchy.clusters.l2_5_cache.overallMshrHits::cache_hierarchy.clusters.l2cache.prefetcher          339                       # number of overall MSHR hits (Count)
board.cache_hierarchy.clusters.l2_5_cache.overallMshrHits::processor.cores.core.data            3                       # number of overall MSHR hits (Count)
board.cache_hierarchy.clusters.l2_5_cache.overallMshrHits::total          354                       # number of overall MSHR hits (Count)
board.cache_hierarchy.clusters.l2_5_cache.demandMshrMisses::cache_hierarchy.clusters.l1dcache.prefetcher         1438                       # number of demand (read+write) MSHR misses (Count)
board.cache_hierarchy.clusters.l2_5_cache.demandMshrMisses::cache_hierarchy.clusters.l2cache.prefetcher          983                       # number of demand (read+write) MSHR misses (Count)
board.cache_hierarchy.clusters.l2_5_cache.demandMshrMisses::processor.cores.core.inst         1757                       # number of demand (read+write) MSHR misses (Count)
board.cache_hierarchy.clusters.l2_5_cache.demandMshrMisses::processor.cores.core.data         3221                       # number of demand (read+write) MSHR misses (Count)
board.cache_hierarchy.clusters.l2_5_cache.demandMshrMisses::total         7399                       # number of demand (read+write) MSHR misses (Count)
board.cache_hierarchy.clusters.l2_5_cache.overallMshrMisses::cache_hierarchy.clusters.l1dcache.prefetcher         1438                       # number of overall MSHR misses (Count)
board.cache_hierarchy.clusters.l2_5_cache.overallMshrMisses::cache_hierarchy.clusters.l2_5_cache.prefetcher         2778                       # number of overall MSHR misses (Count)
board.cache_hierarchy.clusters.l2_5_cache.overallMshrMisses::cache_hierarchy.clusters.l2cache.prefetcher          983                       # number of overall MSHR misses (Count)
board.cache_hierarchy.clusters.l2_5_cache.overallMshrMisses::processor.cores.core.inst         1757                       # number of overall MSHR misses (Count)
board.cache_hierarchy.clusters.l2_5_cache.overallMshrMisses::processor.cores.core.data         3221                       # number of overall MSHR misses (Count)
board.cache_hierarchy.clusters.l2_5_cache.overallMshrMisses::total        10177                       # number of overall MSHR misses (Count)
board.cache_hierarchy.clusters.l2_5_cache.demandMshrMissLatency::cache_hierarchy.clusters.l1dcache.prefetcher    123867837                       # number of demand (read+write) MSHR miss ticks (Tick)
board.cache_hierarchy.clusters.l2_5_cache.demandMshrMissLatency::cache_hierarchy.clusters.l2cache.prefetcher     71638795                       # number of demand (read+write) MSHR miss ticks (Tick)
board.cache_hierarchy.clusters.l2_5_cache.demandMshrMissLatency::processor.cores.core.inst    115673877                       # number of demand (read+write) MSHR miss ticks (Tick)
board.cache_hierarchy.clusters.l2_5_cache.demandMshrMissLatency::processor.cores.core.data    213550236                       # number of demand (read+write) MSHR miss ticks (Tick)
board.cache_hierarchy.clusters.l2_5_cache.demandMshrMissLatency::total    524730745                       # number of demand (read+write) MSHR miss ticks (Tick)
board.cache_hierarchy.clusters.l2_5_cache.overallMshrMissLatency::cache_hierarchy.clusters.l1dcache.prefetcher    123867837                       # number of overall MSHR miss ticks (Tick)
board.cache_hierarchy.clusters.l2_5_cache.overallMshrMissLatency::cache_hierarchy.clusters.l2_5_cache.prefetcher    175034364                       # number of overall MSHR miss ticks (Tick)
board.cache_hierarchy.clusters.l2_5_cache.overallMshrMissLatency::cache_hierarchy.clusters.l2cache.prefetcher     71638795                       # number of overall MSHR miss ticks (Tick)
board.cache_hierarchy.clusters.l2_5_cache.overallMshrMissLatency::processor.cores.core.inst    115673877                       # number of overall MSHR miss ticks (Tick)
board.cache_hierarchy.clusters.l2_5_cache.overallMshrMissLatency::processor.cores.core.data    213550236                       # number of overall MSHR miss ticks (Tick)
board.cache_hierarchy.clusters.l2_5_cache.overallMshrMissLatency::total    699765109                       # number of overall MSHR miss ticks (Tick)
board.cache_hierarchy.clusters.l2_5_cache.demandMshrMissRate::cache_hierarchy.clusters.l1dcache.prefetcher     0.180427                       # mshr miss ratio for demand accesses (Ratio)
board.cache_hierarchy.clusters.l2_5_cache.demandMshrMissRate::cache_hierarchy.clusters.l2cache.prefetcher     0.071175                       # mshr miss ratio for demand accesses (Ratio)
board.cache_hierarchy.clusters.l2_5_cache.demandMshrMissRate::processor.cores.core.inst     0.932590                       # mshr miss ratio for demand accesses (Ratio)
board.cache_hierarchy.clusters.l2_5_cache.demandMshrMissRate::processor.cores.core.data     0.364614                       # mshr miss ratio for demand accesses (Ratio)
board.cache_hierarchy.clusters.l2_5_cache.demandMshrMissRate::total     0.227669                       # mshr miss ratio for demand accesses (Ratio)
[...]
board.processor.cores.core.fetch.nisnDist::3       988303      8.34%     61.74% # Number of instructions fetched each cycle (Total) (Count)
board.processor.cores.core.fetch.nisnDist::4       467244      3.94%     65.68% # Number of instructions fetched each cycle (Total) (Count)
board.processor.cores.core.fetch.nisnDist::5      1017013      8.58%     74.27% # Number of instructions fetched each cycle (Total) (Count)
board.processor.cores.core.fetch.nisnDist::6       458671      3.87%     78.14% # Number of instructions fetched each cycle (Total) (Count)
board.processor.cores.core.fetch.nisnDist::7       318601      2.69%     80.83% # Number of instructions fetched each cycle (Total) (Count)
board.processor.cores.core.fetch.nisnDist::8      2271872     19.17%    100.00% # Number of instructions fetched each cycle (Total) (Count)
board.processor.cores.core.fetch.nisnDist::overflows            0      0.00%    100.00% # Number of instructions fetched each cycle (Total) (Count)
board.processor.cores.core.fetch.nisnDist::min_value            0                       # Number of instructions fetched each cycle (Total) (Count)
board.processor.cores.core.fetch.nisnDist::max_value            8                       # Number of instructions fetched each cycle (Total) (Count)
board.processor.cores.core.fetch.nisnDist::total     11848834                       # Number of instructions fetched each cycle (Total) (Count)
board.processor.cores.core.fetchStats0.numInsts     36615497                       # Number of instructions fetched (thread level) (Count)
board.processor.cores.core.fetchStats0.numOps            0                       # Number of ops (including micro ops) fetched (thread level) (Count)
board.processor.cores.core.fetchStats0.fetchRate     3.040966                       # Number of inst fetches per cycle ((Count/Cycle))
board.processor.cores.core.fetchStats0.numBranches      6998371                       # Number of branches fetched (Count)
board.processor.cores.core.fetchStats0.branchRate     0.581224                       # Number of branch fetches per cycle (Ratio)
board.processor.cores.core.fetchStats0.icacheStallCycles       227776                       # ICache total stall cycles (Cycle)
board.processor.cores.core.fetchStats0.numFetchSuspends            0                       # Number of times Execute suspended instruction fetching (Count)
board.processor.cores.core.iew.idleCycles            0                       # Number of cycles IEW is idle (Cycle)
board.processor.cores.core.iew.squashCycles       358764                       # Number of cycles IEW is squashing (Cycle)
board.processor.cores.core.iew.blockCycles      2740678                       # Number of cycles IEW is blocking (Cycle)
board.processor.cores.core.iew.unblockCycles       111685                       # Number of cycles IEW is unblocking (Cycle)
board.processor.cores.core.iew.dispatchedInsts     28364930                       # Number of instructions dispatched to IQ (Count)
board.processor.cores.core.iew.dispSquashedInsts        71841                       # Number of squashed instructions skipped by dispatch (Count)
board.processor.cores.core.iew.dispLoadInsts      4148461                       # Number of dispatched load instructions (Count)
board.processor.cores.core.iew.dispStoreInsts      1682445                       # Number of dispatched store instructions (Count)
board.processor.cores.core.iew.dispNonSpecInsts        73792                       # Number of dispatched non-speculative instructions (Count)
board.processor.cores.core.iew.iqFullEvents        17927                       # Number of times the IQ has become full, causing a stall (Count)
board.processor.cores.core.iew.lsqFullEvents        13443                       # Number of times the LSQ has become full, causing a stall (Count)
board.processor.cores.core.iew.memOrderViolationEvents         1202                       # Number of memory order violations (Count)
board.processor.cores.core.iew.predictedTakenIncorrect       255369                       # Number of branches that were predicted taken incorrectly (Count)
board.processor.cores.core.iew.predictedNotTakenIncorrect       147366                       # Number of branches that were predicted not taken incorrectly (Count)
board.processor.cores.core.iew.branchMispredicts       402735                       # Number of branch mispredicts detected at execute (Count)
board.processor.cores.core.iew.instsToCommit     22623243                       # Cumulative count of insts sent to commit (Count)
board.processor.cores.core.iew.writebackCount     22450448                       # Cumulative count of insts written-back (Count)
board.processor.cores.core.iew.producerInst     14854785                       # Number of instructions producing a value (Count)
board.processor.cores.core.iew.consumerInst     19960757                       # Number of instructions consuming a value (Count)
board.processor.cores.core.iew.wbRate        1.864540                       # Insts written-back per cycle ((Count/Cycle))
board.processor.cores.core.iew.wbFanout      0.744199                       # Average fanout of values written-back ((Count/Count))
board.processor.cores.core.lsq0.forwLoads       331159                       # Number of loads that had data forwarded from stores (Count)
board.processor.cores.core.lsq0.squashedLoads      2088665                       # Number of loads squashed (Count)
board.processor.cores.core.lsq0.ignoredResponses          830                       # Number of memory responses ignored because the instruction is squashed (Count)
board.processor.cores.core.lsq0.memOrderViolation         1202                       # Number of memory ordering violations (Count)
board.processor.cores.core.lsq0.squashedStores       837673                       # Number of stores squashed (Count)
board.processor.cores.core.lsq0.rescheduledLoads          421                       # Number of loads that were rescheduled (Count)
board.processor.cores.core.lsq0.blockedByCache           23                       # Number of times an access to memory failed due to the cache being blocked (Count)
board.processor.cores.core.lsq0.loadToUse::samples      2059796                       # Distribution of cycle latency between the first time a load is issued and its completion (Unspecified)
board.processor.cores.core.lsq0.loadToUse::mean     2.481688                       # Distribution of cycle latency between the first time a load is issued and its completion (Unspecified)
board.processor.cores.core.lsq0.loadToUse::stdev     4.974146                       # Distribution of cycle latency between the first time a load is issued and its completion (Unspecified)
board.processor.cores.core.lsq0.loadToUse::0-9      2044812     99.27%     99.27% # Distribution of cycle latency between the first time a load is issued and its completion (Unspecified)
board.processor.cores.core.lsq0.loadToUse::10-19         7650      0.37%     99.64% # Distribution of cycle latency between the first time a load is issued and its completion (Unspecified)
board.processor.cores.core.lsq0.loadToUse::20-29         4667      0.23%     99.87% # Distribution of cycle latency between the first time a load is issued and its completion (Unspecified)
board.processor.cores.core.lsq0.loadToUse::30-39         1612      0.08%     99.95% # Distribution of cycle latency between the first time a load is issued and its completion (Unspecified)
board.processor.cores.core.lsq0.loadToUse::40-49          219      0.01%     99.96% # Distribution of cycle latency between the first time a load is issued and its completion (Unspecified)
board.processor.cores.core.lsq0.loadToUse::50-59          102      0.00%     99.96% # Distribution of cycle latency between the first time a load is issued and its completion (Unspecified)
board.processor.cores.core.lsq0.loadToUse::60-69           85      0.00%     99.97% # Distribution of cycle latency between the first time a load is issued and its completion (Unspecified)
board.processor.cores.core.lsq0.loadToUse::70-79            5      0.00%     99.97% # Distribution of cycle latency between the first time a load is issued and its completion (Unspecified)
board.processor.cores.core.lsq0.loadToUse::80-89            3      0.00%     99.97% # Distribution of cycle latency between the first time a load is issued and its completion (Unspecified)
board.processor.cores.core.lsq0.loadToUse::90-99            5      0.00%     99.97% # Distribution of cycle latency between the first time a load is issued and its completion (Unspecified)
board.processor.cores.core.lsq0.loadToUse::100-109            7      0.00%     99.97% # Distribution of cycle latency between the first time a load is issued and its completion (Unspecified)
board.processor.cores.core.lsq0.loadToUse::110-119            2      0.00%     99.97% # Distribution of cycle latency between the first time a load is issued and its completion (Unspecified)
board.processor.cores.core.lsq0.loadToUse::120-129            5      0.00%     99.97% # Distribution of cycle latency between the first time a load is issued and its completion (Unspecified)
board.processor.cores.core.lsq0.loadToUse::130-139           14      0.00%     99.97% # Distribution of cycle latency between the first time a load is issued and its completion (Unspecified)
board.processor.cores.core.lsq0.loadToUse::140-149           10      0.00%     99.97% # Distribution of cycle latency between the first time a load is issued and its completion (Unspecified)
board.processor.cores.core.lsq0.loadToUse::150-159            6      0.00%     99.97% # Distribution of cycle latency between the first time a load is issued and its completion (Unspecified)
board.processor.cores.core.lsq0.loadToUse::160-169            8      0.00%     99.97% # Distribution of cycle latency between the first time a load is issued and its completion (Unspecified)
board.processor.cores.core.lsq0.loadToUse::170-179           14      0.00%     99.97% # Distribution of cycle latency between the first time a load is issued and its completion (Unspecified)
board.processor.cores.core.lsq0.loadToUse::180-189          162      0.01%     99.98% # Distribution of cycle latency between the first time a load is issued and its completion (Unspecified)
board.processor.cores.core.lsq0.loadToUse::190-199           55      0.00%     99.98% # Distribution of cycle latency between the first time a load is issued and its completion (Unspecified)
board.processor.cores.core.lsq0.loadToUse::200-209           30      0.00%     99.98% # Distribution of cycle latency between the first time a load is issued and its completion (Unspecified)
board.processor.cores.core.lsq0.loadToUse::210-219           20      0.00%     99.99% # Distribution of cycle latency between the first time a load is issued and its completion (Unspecified)
board.processor.cores.core.lsq0.loadToUse::220-229           76      0.00%     99.99% # Distribution of cycle latency between the first time a load is issued and its completion (Unspecified)
board.processor.cores.core.lsq0.loadToUse::230-239           14      0.00%     99.99% # Distribution of cycle latency between the first time a load is issued and its completion (Unspecified)
board.processor.cores.core.lsq0.loadToUse::240-249            6      0.00%     99.99% # Distribution of cycle latency between the first time a load is issued and its completion (Unspecified)
board.processor.cores.core.lsq0.loadToUse::250-259            9      0.00%     99.99% # Distribution of cycle latency between the first time a load is issued and its completion (Unspecified)
board.processor.cores.core.lsq0.loadToUse::260-269           54      0.00%     99.99% # Distribution of cycle latency between the first time a load is issued and its completion (Unspecified)
board.processor.cores.core.lsq0.loadToUse::270-279           14      0.00%     99.99% # Distribution of cycle latency between the first time a load is issued and its completion (Unspecified)
board.processor.cores.core.lsq0.loadToUse::280-289           18      0.00%     99.99% # Distribution of cycle latency between the first time a load is issued and its completion (Unspecified)
board.processor.cores.core.lsq0.loadToUse::290-299            4      0.00%     99.99% # Distribution of cycle latency between the first time a load is issued and its completion (Unspecified)
board.processor.cores.core.lsq0.loadToUse::overflows          108      0.01%    100.00% # Distribution of cycle latency between the first time a load is issued and its completion (Unspecified)
board.processor.cores.core.lsq0.loadToUse::min_value            2                       # Distribution of cycle latency between the first time a load is issued and its completion (Unspecified)
board.processor.cores.core.lsq0.loadToUse::max_value         1193                       # Distribution of cycle latency between the first time a load is issued and its completion (Unspecified)
board.processor.cores.core.lsq0.loadToUse::total      2059796                       # Distribution of cycle latency between the first time a load is issued and its completion (Unspecified)
board.processor.cores.core.mmu.dtb.readHits            0                       # read hits (Count)
board.processor.cores.core.mmu.dtb.readMisses            0                       # read misses (Count)
board.processor.cores.core.mmu.dtb.readAccesses            0                       # read accesses (Count)
board.processor.cores.core.mmu.dtb.writeHits            0                       # write hits (Count)
board.processor.cores.core.mmu.dtb.writeMisses            0                       # write misses (Count)
board.processor.cores.core.mmu.dtb.writeAccesses            0                       # write accesses (Count)
board.processor.cores.core.mmu.dtb.hits             0                       # Total TLB (read and write) hits (Count)
board.processor.cores.core.mmu.dtb.misses            0                       # Total TLB (read and write) misses (Count)
board.processor.cores.core.mmu.dtb.accesses            0                       # Total TLB (read and write) accesses (Count)
board.processor.cores.core.mmu.dtb.walker.num_4kb_walks            0                       # Completed page walks with 4KB pages (Count)
board.processor.cores.core.mmu.dtb.walker.num_2mb_walks            0                       # Completed page walks with 2MB pages (Count)
board.processor.cores.core.mmu.dtb.walker.power_state.pwrStateResidencyTicks::UNDEFINED   4009567752                       # Cumulative time (in ticks) in various power states (Tick)
board.processor.cores.core.mmu.itb.readHits            0                       # read hits (Count)
board.processor.cores.core.mmu.itb.readMisses            0                       # read misses (Count)
board.processor.cores.core.mmu.itb.readAccesses            0                       # read accesses (Count)
board.processor.cores.core.mmu.itb.writeHits            0                       # write hits (Count)
board.processor.cores.core.mmu.itb.writeMisses            0                       # write misses (Count)
board.processor.cores.core.mmu.itb.writeAccesses            0                       # write accesses (Count)
board.processor.cores.core.mmu.itb.hits             0                       # Total TLB (read and write) hits (Count)
board.processor.cores.core.mmu.itb.misses            0                       # Total TLB (read and write) misses (Count)
board.processor.cores.core.mmu.itb.accesses            0                       # Total TLB (read and write) accesses (Count)
board.processor.cores.core.mmu.itb.walker.num_4kb_walks            0                       # Completed page walks with 4KB pages (Count)
board.processor.cores.core.mmu.itb.walker.num_2mb_walks            0                       # Completed page walks with 2MB pages (Count)
board.processor.cores.core.mmu.itb.walker.power_state.pwrStateResidencyTicks::UNDEFINED   4009567752                       # Cumulative time (in ticks) in various power states (Tick)
board.processor.cores.core.power_state.pwrStateResidencyTicks::ON   4009567752                       # Cumulative time (in ticks) in various power states (Tick)
board.processor.cores.core.rename.squashCycles       358764                       # Number of cycles rename is squashing (Cycle)
board.processor.cores.core.rename.idleCycles      1668025                       # Number of cycles rename is idle (Cycle)
board.processor.cores.core.rename.blockCycles      3313814                       # Number of cycles rename is blocking (Cycle)
board.processor.cores.core.rename.serializeStallCycles       174506                       # count of cycles rename stalled for serializing inst (Cycle)
board.processor.cores.core.rename.runCycles      5598664                       # Number of cycles rename is running (Cycle)
board.processor.cores.core.rename.unblockCycles       735061                       # Number of cycles rename is unblocking (Cycle)
board.processor.cores.core.rename.renamedInsts     31867400                       # Number of instructions processed by rename (Count)
board.processor.cores.core.rename.ROBFullEvents           72                       # Number of times rename has blocked due to ROB full (Count)
board.processor.cores.core.rename.IQFullEvents       500386                       # Number of times rename has blocked due to IQ full (Count)
board.processor.cores.core.rename.LQFullEvents        15074                       # Number of times rename has blocked due to LQ full (Count)
board.processor.cores.core.rename.SQFullEvents        49833                       # Number of times rename has blocked due to SQ full (Count)
board.processor.cores.core.rename.renamedOperands     24339513                       # Number of destination operands rename has renamed (Count)
board.processor.cores.core.rename.lookups     40718989                       # Number of register rename lookups that rename has made (Count)
board.processor.cores.core.rename.intLookups     40101670                       # Number of integer rename lookups (Count)
board.processor.cores.core.rename.fpLookups          386                       # Number of floating rename lookups (Count)
board.processor.cores.core.rename.committedMaps     10626441                       # Number of HB maps that are committed (Count)
board.processor.cores.core.rename.undoneMaps     13713072                       # Number of HB maps that are undone due to squashing (Count)
board.processor.cores.core.rename.serializing         5514                       # count of serializing insts renamed (Count)
board.processor.cores.core.rename.tempSerializing         5524                       # count of temporary serializing insts renamed (Count)
board.processor.cores.core.rename.skidInsts      1568723                       # count of insts added to the skid buffer (Count)
board.processor.cores.core.rob.reads         37700214                       # The number of ROB reads (Count)
board.processor.cores.core.rob.writes        58734779                       # The number of ROB writes (Count)
board.processor.cores.core.thread_0.numInsts     13703288                       # Number of Instructions committed (Count)
board.processor.cores.core.thread_0.numOps     13776921                       # Number of Ops committed (Count)
board.processor.cores.core.thread_0.numMemRefs            0                       # Number of Memory References (Count)
board.processor.cores.core.workload.numSyscalls          228                       # Number of system calls (Count)
board.workload.inst.arm                             0                       # number of arm instructions executed (Count)
board.workload.inst.quiesce                         0                       # number of quiesce instructions executed (Count)

---------- End Simulation Statistics   ----------
