
---------- Begin Simulation Statistics ----------
simSeconds                                   0.014977                       # Number of seconds simulated (Second)
simTicks                                  14977324350                       # Number of ticks simulated (Tick)
finalTick                                 14977324350                       # Number of ticks from beginning of simulation (restored from checkpoints and never reset) (Tick)
simFreq                                  1000000000000                       # The number of ticks per simulated second ((Tick/Second))
hostSeconds                                    100.97                       # Real time elapsed on the host (Second)
hostTickRate                                148332960                       # The number of ticks simulated per host second (ticks/s) ((Tick/Second))
hostMemory                                    1300516                       # Number of bytes of host memory used (Byte)
simInsts                                     33954546                       # Number of instructions simulated (Count)
simOps                                       33954560                       # Number of ops (including micro ops) simulated (Count)
hostInstRate                                   336280                       # Simulator instruction rate (inst/s) ((Count/Second))
hostOpRate                                     336280                       # Simulator op (including micro ops) rate (op/s) ((Count/Second))
board.cache_hierarchy.clusters.dptw_cache.blockedCycles::no_mshrs            0                       # number of cycles access was blocked (Cycle)
board.cache_hierarchy.clusters.dptw_cache.blockedCycles::no_targets            0                       # number of cycles access was blocked (Cycle)
board.cache_hierarchy.clusters.dptw_cache.blockedCauses::no_mshrs            0                       # number of times access was blocked (Count)
board.cache_hierarchy.clusters.dptw_cache.blockedCauses::no_targets            0                       # number of times access was blocked (Count)
board.cache_hierarchy.clusters.dptw_cache.avgBlocked::no_mshrs          nan                       # average number of cycles each access was blocked ((Cycle/Count))
board.cache_hierarchy.clusters.dptw_cache.avgBlocked::no_targets          nan                       # average number of cycles each access was blocked ((Cycle/Count))
board.cache_hierarchy.clusters.dptw_cache.replacements            0                       # number of replacements (Count)
board.cache_hierarchy.clusters.dptw_cache.power_state.pwrStateResidencyTicks::UNDEFINED  14977324350                       # Cumulative time (in ticks) in various power states (Tick)
board.cache_hierarchy.clusters.dptw_cache.tags.tagsInUse            0                       # Average ticks per tags in use ((Tick/Count))
board.cache_hierarchy.clusters.dptw_cache.tags.totalRefs            0                       # Total number of references to valid blocks. (Count)
board.cache_hierarchy.clusters.dptw_cache.tags.sampledRefs            0                       # Sample count of references to valid blocks. (Count)
board.cache_hierarchy.clusters.dptw_cache.tags.avgRefs          nan                       # Average number of references to valid blocks. ((Count/Count))
board.cache_hierarchy.clusters.dptw_cache.tags.warmupTick            0                       # The tick when the warmup percentage was hit. (Tick)
board.cache_hierarchy.clusters.dptw_cache.tags.tagAccesses            0                       # Number of tag accesses (Count)
board.cache_hierarchy.clusters.dptw_cache.tags.dataAccesses            0                       # Number of data accesses (Count)
board.cache_hierarchy.clusters.dptw_cache.tags.power_state.pwrStateResidencyTicks::UNDEFINED  14977324350                       # Cumulative time (in ticks) in various power states (Tick)
board.cache_hierarchy.clusters.iptw_cache.blockedCycles::no_mshrs            0                       # number of cycles access was blocked (Cycle)
board.cache_hierarchy.clusters.iptw_cache.blockedCycles::no_targets            0                       # number of cycles access was blocked (Cycle)
board.cache_hierarchy.clusters.iptw_cache.blockedCauses::no_mshrs            0                       # number of times access was blocked (Count)
board.cache_hierarchy.clusters.iptw_cache.blockedCauses::no_targets            0                       # number of times access was blocked (Count)
board.cache_hierarchy.clusters.iptw_cache.avgBlocked::no_mshrs          nan                       # average number of cycles each access was blocked ((Cycle/Count))
board.cache_hierarchy.clusters.iptw_cache.avgBlocked::no_targets          nan                       # average number of cycles each access was blocked ((Cycle/Count))
board.cache_hierarchy.clusters.iptw_cache.replacements            0                       # number of replacements (Count)
board.cache_hierarchy.clusters.iptw_cache.power_state.pwrStateResidencyTicks::UNDEFINED  14977324350                       # Cumulative time (in ticks) in various power states (Tick)
board.cache_hierarchy.clusters.iptw_cache.tags.tagsInUse            0                       # Average ticks per tags in use ((Tick/Count))
board.cache_hierarchy.clusters.iptw_cache.tags.totalRefs            0                       # Total number of references to valid blocks. (Count)
board.cache_hierarchy.clusters.iptw_cache.tags.sampledRefs            0                       # Sample count of references to valid blocks. (Count)
board.cache_hierarchy.clusters.iptw_cache.tags.avgRefs          nan                       # Average number of references to valid blocks. ((Count/Count))
board.cache_hierarchy.clusters.iptw_cache.tags.warmupTick            0                       # The tick when the warmup percentage was hit. (Tick)
board.cache_hierarchy.clusters.iptw_cache.tags.tagAccesses            0                       # Number of tag accesses (Count)
board.cache_hierarchy.clusters.iptw_cache.tags.dataAccesses            0                       # Number of data accesses (Count)
board.cache_hierarchy.clusters.iptw_cache.tags.power_state.pwrStateResidencyTicks::UNDEFINED  14977324350                       # Cumulative time (in ticks) in various power states (Tick)
board.cache_hierarchy.clusters.l1dcache.demandHits::processor.cores.core.data     14311748                       # number of demand (read+write) hits (Count)
board.cache_hierarchy.clusters.l1dcache.demandHits::total     14311748                       # number of demand (read+write) hits (Count)
board.cache_hierarchy.clusters.l1dcache.overallHits::processor.cores.core.data     14311748                       # number of overall hits (Count)
board.cache_hierarchy.clusters.l1dcache.overallHits::total     14311748                       # number of overall hits (Count)
board.cache_hierarchy.clusters.l1dcache.demandMisses::processor.cores.core.data        63857                       # number of demand (read+write) misses (Count)
board.cache_hierarchy.clusters.l1dcache.demandMisses::total        63857                       # number of demand (read+write) misses (Count)
board.cache_hierarchy.clusters.l1dcache.overallMisses::processor.cores.core.data        63857                       # number of overall misses (Count)
board.cache_hierarchy.clusters.l1dcache.overallMisses::total        63857                       # number of overall misses (Count)
board.cache_hierarchy.clusters.l1dcache.demandMissLatency::processor.cores.core.data    340906752                       # number of demand (read+write) miss ticks (Tick)
board.cache_hierarchy.clusters.l1dcache.demandMissLatency::total    340906752                       # number of demand (read+write) miss ticks (Tick)
board.cache_hierarchy.clusters.l1dcache.overallMissLatency::processor.cores.core.data    340906752                       # number of overall miss ticks (Tick)
board.cache_hierarchy.clusters.l1dcache.overallMissLatency::total    340906752                       # number of overall miss ticks (Tick)
board.cache_hierarchy.clusters.l1dcache.demandAccesses::processor.cores.core.data     14375605                       # number of demand (read+write) accesses (Count)
board.cache_hierarchy.clusters.l1dcache.demandAccesses::total     14375605                       # number of demand (read+write) accesses (Count)
board.cache_hierarchy.clusters.l1dcache.overallAccesses::processor.cores.core.data     14375605                       # number of overall (read+write) accesses (Count)
board.cache_hierarchy.clusters.l1dcache.overallAccesses::total     14375605                       # number of overall (read+write) accesses (Count)
board.cache_hierarchy.clusters.l1dcache.demandMissRate::processor.cores.core.data     0.004442                       # miss rate for demand accesses (Ratio)
board.cache_hierarchy.clusters.l1dcache.demandMissRate::total     0.004442                       # miss rate for demand accesses (Ratio)
board.cache_hierarchy.clusters.l1dcache.overallMissRate::processor.cores.core.data     0.004442                       # miss rate for overall accesses (Ratio)
board.cache_hierarchy.clusters.l1dcache.overallMissRate::total     0.004442                       # miss rate for overall accesses (Ratio)
board.cache_hierarchy.clusters.l1dcache.demandAvgMissLatency::processor.cores.core.data  5338.596426                       # average overall miss latency in ticks ((Tick/Count))
board.cache_hierarchy.clusters.l1dcache.demandAvgMissLatency::total  5338.596426                       # average overall miss latency in ticks ((Tick/Count))
board.cache_hierarchy.clusters.l1dcache.overallAvgMissLatency::processor.cores.core.data  5338.596426                       # average overall miss latency ((Tick/Count))
board.cache_hierarchy.clusters.l1dcache.overallAvgMissLatency::total  5338.596426                       # average overall miss latency ((Tick/Count))
board.cache_hierarchy.clusters.l1dcache.blockedCycles::no_mshrs            0                       # number of cycles access was blocked (Cycle)
board.cache_hierarchy.clusters.l1dcache.blockedCycles::no_targets            0                       # number of cycles access was blocked (Cycle)
board.cache_hierarchy.clusters.l1dcache.blockedCauses::no_mshrs            0                       # number of times access was blocked (Count)
board.cache_hierarchy.clusters.l1dcache.blockedCauses::no_targets            0                       # number of times access was blocked (Count)
board.cache_hierarchy.clusters.l1dcache.avgBlocked::no_mshrs          nan                       # average number of cycles each access was blocked ((Cycle/Count))
board.cache_hierarchy.clusters.l1dcache.avgBlocked::no_targets          nan                       # average number of cycles each access was blocked ((Cycle/Count))
board.cache_hierarchy.clusters.l1dcache.writebacks::writebacks        65506                       # number of writebacks (Count)
board.cache_hierarchy.clusters.l1dcache.writebacks::total        65506                       # number of writebacks (Count)
board.cache_hierarchy.clusters.l1dcache.demandMshrHits::processor.cores.core.data          579                       # number of demand (read+write) MSHR hits (Count)
board.cache_hierarchy.clusters.l1dcache.demandMshrHits::total          579                       # number of demand (read+write) MSHR hits (Count)
board.cache_hierarchy.clusters.l1dcache.overallMshrHits::processor.cores.core.data          579                       # number of overall MSHR hits (Count)
board.cache_hierarchy.clusters.l1dcache.overallMshrHits::total          579                       # number of overall MSHR hits (Count)
board.cache_hierarchy.clusters.l1dcache.demandMshrMisses::processor.cores.core.data        63278                       # number of demand (read+write) MSHR misses (Count)
board.cache_hierarchy.clusters.l1dcache.demandMshrMisses::total        63278                       # number of demand (read+write) MSHR misses (Count)
board.cache_hierarchy.clusters.l1dcache.overallMshrMisses::cache_hierarchy.clusters.l1dcache.prefetcher         3432                       # number of overall MSHR misses (Count)
board.cache_hierarchy.clusters.l1dcache.overallMshrMisses::processor.cores.core.data        63278                       # number of overall MSHR misses (Count)
board.cache_hierarchy.clusters.l1dcache.overallMshrMisses::total        66710                       # number of overall MSHR misses (Count)
board.cache_hierarchy.clusters.l1dcache.demandMshrMissLatency::processor.cores.core.data    292662378                       # number of demand (read+write) MSHR miss ticks (Tick)
board.cache_hierarchy.clusters.l1dcache.demandMshrMissLatency::total    292662378                       # number of demand (read+write) MSHR miss ticks (Tick)
board.cache_hierarchy.clusters.l1dcache.overallMshrMissLatency::cache_hierarchy.clusters.l1dcache.prefetcher     31291553                       # number of overall MSHR miss ticks (Tick)
board.cache_hierarchy.clusters.l1dcache.overallMshrMissLatency::processor.cores.core.data    292662378                       # number of overall MSHR miss ticks (Tick)
board.cache_hierarchy.clusters.l1dcache.overallMshrMissLatency::total    323953931                       # number of overall MSHR miss ticks (Tick)
board.cache_hierarchy.clusters.l1dcache.demandMshrMissRate::processor.cores.core.data     0.004402                       # mshr miss ratio for demand accesses (Ratio)
board.cache_hierarchy.clusters.l1dcache.demandMshrMissRate::total     0.004402                       # mshr miss ratio for demand accesses (Ratio)
board.cache_hierarchy.clusters.l1dcache.overallMshrMissRate::cache_hierarchy.clusters.l1dcache.prefetcher          inf                       # mshr miss ratio for overall accesses (Ratio)
board.cache_hierarchy.clusters.l1dcache.overallMshrMissRate::processor.cores.core.data     0.004402                       # mshr miss ratio for overall accesses (Ratio)
board.cache_hierarchy.clusters.l1dcache.overallMshrMissRate::total     0.004641                       # mshr miss ratio for overall accesses (Ratio)
board.cache_hierarchy.clusters.l1dcache.demandAvgMshrMissLatency::processor.cores.core.data  4625.025728                       # average overall mshr miss latency ((Tick/Count))
board.cache_hierarchy.clusters.l1dcache.demandAvgMshrMissLatency::total  4625.025728                       # average overall mshr miss latency ((Tick/Count))
board.cache_hierarchy.clusters.l1dcache.overallAvgMshrMissLatency::cache_hierarchy.clusters.l1dcache.prefetcher  9117.585373                       # average overall mshr miss latency ((Tick/Count))
board.cache_hierarchy.clusters.l1dcache.overallAvgMshrMissLatency::processor.cores.core.data  4625.025728                       # average overall mshr miss latency ((Tick/Count))
board.cache_hierarchy.clusters.l1dcache.overallAvgMshrMissLatency::total  4856.152466                       # average overall mshr miss latency ((Tick/Count))
board.cache_hierarchy.clusters.l1dcache.replacements        66193                       # number of replacements (Count)
board.cache_hierarchy.clusters.l1dcache.HardPFReq.mshrMisses::cache_hierarchy.clusters.l1dcache.prefetcher         3432                       # number of HardPFReq MSHR misses (Count)
board.cache_hierarchy.clusters.l1dcache.HardPFReq.mshrMisses::total         3432                       # number of HardPFReq MSHR misses (Count)
board.cache_hierarchy.clusters.l1dcache.HardPFReq.mshrMissLatency::cache_hierarchy.clusters.l1dcache.prefetcher     31291553                       # number of HardPFReq MSHR miss ticks (Tick)
board.cache_hierarchy.clusters.l1dcache.HardPFReq.mshrMissLatency::total     31291553                       # number of HardPFReq MSHR miss ticks (Tick)
board.cache_hierarchy.clusters.l1dcache.HardPFReq.mshrMissRate::cache_hierarchy.clusters.l1dcache.prefetcher          inf                       # mshr miss rate for HardPFReq accesses (Ratio)
board.cache_hierarchy.clusters.l1dcache.HardPFReq.mshrMissRate::total          inf                       # mshr miss rate for HardPFReq accesses (Ratio)
board.cache_hierarchy.clusters.l1dcache.HardPFReq.avgMshrMissLatency::cache_hierarchy.clusters.l1dcache.prefetcher  9117.585373                       # average HardPFReq mshr miss latency ((Tick/Count))
board.cache_hierarchy.clusters.l1dcache.HardPFReq.avgMshrMissLatency::total  9117.585373                       # average HardPFReq mshr miss latency ((Tick/Count))
board.cache_hierarchy.clusters.l1dcache.LoadLockedReq.hits::processor.cores.core.data            8                       # number of LoadLockedReq hits (Count)
board.cache_hierarchy.clusters.l1dcache.LoadLockedReq.hits::total            8                       # number of LoadLockedReq hits (Count)
board.cache_hierarchy.clusters.l1dcache.LoadLockedReq.misses::processor.cores.core.data            7                       # number of LoadLockedReq misses (Count)
board.cache_hierarchy.clusters.l1dcache.LoadLockedReq.misses::total            7                       # number of LoadLockedReq misses (Count)
board.cache_hierarchy.clusters.l1dcache.LoadLockedReq.missLatency::processor.cores.core.data       235764                       # number of LoadLockedReq miss ticks (Tick)
board.cache_hierarchy.clusters.l1dcache.LoadLockedReq.missLatency::total       235764                       # number of LoadLockedReq miss ticks (Tick)
board.cache_hierarchy.clusters.l1dcache.LoadLockedReq.accesses::processor.cores.core.data           15                       # number of LoadLockedReq accesses(hits+misses) (Count)
board.cache_hierarchy.clusters.l1dcache.LoadLockedReq.accesses::total           15                       # number of LoadLockedReq accesses(hits+misses) (Count)
board.cache_hierarchy.clusters.l1dcache.LoadLockedReq.missRate::processor.cores.core.data     0.466667                       # miss rate for LoadLockedReq accesses (Ratio)
board.cache_hierarchy.clusters.l1dcache.LoadLockedReq.missRate::total     0.466667                       # miss rate for LoadLockedReq accesses (Ratio)
board.cache_hierarchy.clusters.l1dcache.LoadLockedReq.avgMissLatency::processor.cores.core.data 33680.571429                       # average LoadLockedReq miss latency ((Tick/Count))
board.cache_hierarchy.clusters.l1dcache.LoadLockedReq.avgMissLatency::total 33680.571429                       # average LoadLockedReq miss latency ((Tick/Count))
board.cache_hierarchy.clusters.l1dcache.LoadLockedReq.mshrHits::processor.cores.core.data            5                       # number of LoadLockedReq MSHR hits (Count)
board.cache_hierarchy.clusters.l1dcache.LoadLockedReq.mshrHits::total            5                       # number of LoadLockedReq MSHR hits (Count)
board.cache_hierarchy.clusters.l1dcache.LoadLockedReq.mshrMisses::processor.cores.core.data            2                       # number of LoadLockedReq MSHR misses (Count)
board.cache_hierarchy.clusters.l1dcache.LoadLockedReq.mshrMisses::total            2                       # number of LoadLockedReq MSHR misses (Count)
board.cache_hierarchy.clusters.l1dcache.LoadLockedReq.mshrMissLatency::processor.cores.core.data        69597                       # number of LoadLockedReq MSHR miss ticks (Tick)
board.cache_hierarchy.clusters.l1dcache.LoadLockedReq.mshrMissLatency::total        69597                       # number of LoadLockedReq MSHR miss ticks (Tick)
board.cache_hierarchy.clusters.l1dcache.LoadLockedReq.mshrMissRate::processor.cores.core.data     0.133333                       # mshr miss rate for LoadLockedReq accesses (Ratio)
board.cache_hierarchy.clusters.l1dcache.LoadLockedReq.mshrMissRate::total     0.133333                       # mshr miss rate for LoadLockedReq accesses (Ratio)
board.cache_hierarchy.clusters.l1dcache.LoadLockedReq.avgMshrMissLatency::processor.cores.core.data 34798.500000                       # average LoadLockedReq mshr miss latency ((Tick/Count))
board.cache_hierarchy.clusters.l1dcache.LoadLockedReq.avgMshrMissLatency::total 34798.500000                       # average LoadLockedReq mshr miss latency ((Tick/Count))
board.cache_hierarchy.clusters.l1dcache.ReadReq.hits::processor.cores.core.data     12220482                       # number of ReadReq hits (Count)
board.cache_hierarchy.clusters.l1dcache.ReadReq.hits::total     12220482                       # number of ReadReq hits (Count)
board.cache_hierarchy.clusters.l1dcache.ReadReq.misses::processor.cores.core.data        62906                       # number of ReadReq misses (Count)
board.cache_hierarchy.clusters.l1dcache.ReadReq.misses::total        62906                       # number of ReadReq misses (Count)
board.cache_hierarchy.clusters.l1dcache.ReadReq.missLatency::processor.cores.core.data    305413281                       # number of ReadReq miss ticks (Tick)
board.cache_hierarchy.clusters.l1dcache.ReadReq.missLatency::total    305413281                       # number of ReadReq miss ticks (Tick)
board.cache_hierarchy.clusters.l1dcache.ReadReq.accesses::processor.cores.core.data     12283388                       # number of ReadReq accesses(hits+misses) (Count)
board.cache_hierarchy.clusters.l1dcache.ReadReq.accesses::total     12283388                       # number of ReadReq accesses(hits+misses) (Count)
board.cache_hierarchy.clusters.l1dcache.ReadReq.missRate::processor.cores.core.data     0.005121                       # miss rate for ReadReq accesses (Ratio)
board.cache_hierarchy.clusters.l1dcache.ReadReq.missRate::total     0.005121                       # miss rate for ReadReq accesses (Ratio)
board.cache_hierarchy.clusters.l1dcache.ReadReq.avgMissLatency::processor.cores.core.data  4855.073936                       # average ReadReq miss latency ((Tick/Count))
board.cache_hierarchy.clusters.l1dcache.ReadReq.avgMissLatency::total  4855.073936                       # average ReadReq miss latency ((Tick/Count))
board.cache_hierarchy.clusters.l1dcache.ReadReq.mshrHits::processor.cores.core.data           84                       # number of ReadReq MSHR hits (Count)
board.cache_hierarchy.clusters.l1dcache.ReadReq.mshrHits::total           84                       # number of ReadReq MSHR hits (Count)
board.cache_hierarchy.clusters.l1dcache.ReadReq.mshrMisses::processor.cores.core.data        62822                       # number of ReadReq MSHR misses (Count)
board.cache_hierarchy.clusters.l1dcache.ReadReq.mshrMisses::total        62822                       # number of ReadReq MSHR misses (Count)
board.cache_hierarchy.clusters.l1dcache.ReadReq.mshrMissLatency::processor.cores.core.data    281184867                       # number of ReadReq MSHR miss ticks (Tick)
board.cache_hierarchy.clusters.l1dcache.ReadReq.mshrMissLatency::total    281184867                       # number of ReadReq MSHR miss ticks (Tick)
board.cache_hierarchy.clusters.l1dcache.ReadReq.mshrMissRate::processor.cores.core.data     0.005114                       # mshr miss rate for ReadReq accesses (Ratio)
board.cache_hierarchy.clusters.l1dcache.ReadReq.mshrMissRate::total     0.005114                       # mshr miss rate for ReadReq accesses (Ratio)
board.cache_hierarchy.clusters.l1dcache.ReadReq.avgMshrMissLatency::processor.cores.core.data  4475.898045                       # average ReadReq mshr miss latency ((Tick/Count))
board.cache_hierarchy.clusters.l1dcache.ReadReq.avgMshrMissLatency::total  4475.898045                       # average ReadReq mshr miss latency ((Tick/Count))
board.cache_hierarchy.clusters.l1dcache.StoreCondReq.hits::processor.cores.core.data           11                       # number of StoreCondReq hits (Count)
board.cache_hierarchy.clusters.l1dcache.StoreCondReq.hits::total           11                       # number of StoreCondReq hits (Count)
board.cache_hierarchy.clusters.l1dcache.StoreCondReq.misses::processor.cores.core.data            3                       # number of StoreCondReq misses (Count)
board.cache_hierarchy.clusters.l1dcache.StoreCondReq.misses::total            3                       # number of StoreCondReq misses (Count)
board.cache_hierarchy.clusters.l1dcache.StoreCondReq.missLatency::processor.cores.core.data        13986                       # number of StoreCondReq miss ticks (Tick)
board.cache_hierarchy.clusters.l1dcache.StoreCondReq.missLatency::total        13986                       # number of StoreCondReq miss ticks (Tick)
board.cache_hierarchy.clusters.l1dcache.StoreCondReq.accesses::processor.cores.core.data           14                       # number of StoreCondReq accesses(hits+misses) (Count)
board.cache_hierarchy.clusters.l1dcache.StoreCondReq.accesses::total           14                       # number of StoreCondReq accesses(hits+misses) (Count)
board.cache_hierarchy.clusters.l1dcache.StoreCondReq.missRate::processor.cores.core.data     0.214286                       # miss rate for StoreCondReq accesses (Ratio)
board.cache_hierarchy.clusters.l1dcache.StoreCondReq.missRate::total     0.214286                       # miss rate for StoreCondReq accesses (Ratio)
board.cache_hierarchy.clusters.l1dcache.StoreCondReq.avgMissLatency::processor.cores.core.data         4662                       # average StoreCondReq miss latency ((Tick/Count))
board.cache_hierarchy.clusters.l1dcache.StoreCondReq.avgMissLatency::total         4662                       # average StoreCondReq miss latency ((Tick/Count))
board.cache_hierarchy.clusters.l1dcache.StoreCondReq.mshrMisses::processor.cores.core.data            3                       # number of StoreCondReq MSHR misses (Count)
board.cache_hierarchy.clusters.l1dcache.StoreCondReq.mshrMisses::total            3                       # number of StoreCondReq MSHR misses (Count)
board.cache_hierarchy.clusters.l1dcache.StoreCondReq.mshrMissLatency::processor.cores.core.data        12987                       # number of StoreCondReq MSHR miss ticks (Tick)
board.cache_hierarchy.clusters.l1dcache.StoreCondReq.mshrMissLatency::total        12987                       # number of StoreCondReq MSHR miss ticks (Tick)
board.cache_hierarchy.clusters.l1dcache.StoreCondReq.mshrMissRate::processor.cores.core.data     0.214286                       # mshr miss rate for StoreCondReq accesses (Ratio)
board.cache_hierarchy.clusters.l1dcache.StoreCondReq.mshrMissRate::total     0.214286                       # mshr miss rate for StoreCondReq accesses (Ratio)
board.cache_hierarchy.clusters.l1dcache.StoreCondReq.avgMshrMissLatency::processor.cores.core.data         4329                       # average StoreCondReq mshr miss latency ((Tick/Count))
board.cache_hierarchy.clusters.l1dcache.StoreCondReq.avgMshrMissLatency::total         4329                       # average StoreCondReq mshr miss latency ((Tick/Count))
board.cache_hierarchy.clusters.l1dcache.SwapReq.hits::processor.cores.core.data           24                       # number of SwapReq hits (Count)
board.cache_hierarchy.clusters.l1dcache.SwapReq.hits::total           24                       # number of SwapReq hits (Count)
board.cache_hierarchy.clusters.l1dcache.SwapReq.misses::processor.cores.core.data            1                       # number of SwapReq misses (Count)
board.cache_hierarchy.clusters.l1dcache.SwapReq.misses::total            1                       # number of SwapReq misses (Count)
board.cache_hierarchy.clusters.l1dcache.SwapReq.missLatency::processor.cores.core.data        53613                       # number of SwapReq miss ticks (Tick)
board.cache_hierarchy.clusters.l1dcache.SwapReq.missLatency::total        53613                       # number of SwapReq miss ticks (Tick)
board.cache_hierarchy.clusters.l1dcache.SwapReq.accesses::processor.cores.core.data           25                       # number of SwapReq accesses(hits+misses) (Count)
board.cache_hierarchy.clusters.l1dcache.SwapReq.accesses::total           25                       # number of SwapReq accesses(hits+misses) (Count)
board.cache_hierarchy.clusters.l1dcache.SwapReq.missRate::processor.cores.core.data     0.040000                       # miss rate for SwapReq accesses (Ratio)
board.cache_hierarchy.clusters.l1dcache.SwapReq.missRate::total     0.040000                       # miss rate for SwapReq accesses (Ratio)
board.cache_hierarchy.clusters.l1dcache.SwapReq.avgMissLatency::processor.cores.core.data        53613                       # average SwapReq miss latency ((Tick/Count))
board.cache_hierarchy.clusters.l1dcache.SwapReq.avgMissLatency::total        53613                       # average SwapReq miss latency ((Tick/Count))
board.cache_hierarchy.clusters.l1dcache.SwapReq.mshrMisses::processor.cores.core.data            1                       # number of SwapReq MSHR misses (Count)
board.cache_hierarchy.clusters.l1dcache.SwapReq.mshrMisses::total            1                       # number of SwapReq MSHR misses (Count)
board.cache_hierarchy.clusters.l1dcache.SwapReq.mshrMissLatency::processor.cores.core.data        53280                       # number of SwapReq MSHR miss ticks (Tick)
board.cache_hierarchy.clusters.l1dcache.SwapReq.mshrMissLatency::total        53280                       # number of SwapReq MSHR miss ticks (Tick)
board.cache_hierarchy.clusters.l1dcache.SwapReq.mshrMissRate::processor.cores.core.data     0.040000                       # mshr miss rate for SwapReq accesses (Ratio)
board.cache_hierarchy.clusters.l1dcache.SwapReq.mshrMissRate::total     0.040000                       # mshr miss rate for SwapReq accesses (Ratio)
board.cache_hierarchy.clusters.l1dcache.SwapReq.avgMshrMissLatency::processor.cores.core.data        53280                       # average SwapReq mshr miss latency ((Tick/Count))
board.cache_hierarchy.clusters.l1dcache.SwapReq.avgMshrMissLatency::total        53280                       # average SwapReq mshr miss latency ((Tick/Count))
board.cache_hierarchy.clusters.l1dcache.WriteReq.hits::processor.cores.core.data      2091266                       # number of WriteReq hits (Count)
board.cache_hierarchy.clusters.l1dcache.WriteReq.hits::total      2091266                       # number of WriteReq hits (Count)
board.cache_hierarchy.clusters.l1dcache.WriteReq.misses::processor.cores.core.data          951                       # number of WriteReq misses (Count)
board.cache_hierarchy.clusters.l1dcache.WriteReq.misses::total          951                       # number of WriteReq misses (Count)
board.cache_hierarchy.clusters.l1dcache.WriteReq.missLatency::processor.cores.core.data     35493471                       # number of WriteReq miss ticks (Tick)
board.cache_hierarchy.clusters.l1dcache.WriteReq.missLatency::total     35493471                       # number of WriteReq miss ticks (Tick)
board.cache_hierarchy.clusters.l1dcache.WriteReq.accesses::processor.cores.core.data      2092217                       # number of WriteReq accesses(hits+misses) (Count)
board.cache_hierarchy.clusters.l1dcache.WriteReq.accesses::total      2092217                       # number of WriteReq accesses(hits+misses) (Count)
board.cache_hierarchy.clusters.l1dcache.WriteReq.missRate::processor.cores.core.data     0.000455                       # miss rate for WriteReq accesses (Ratio)
board.cache_hierarchy.clusters.l1dcache.WriteReq.missRate::total     0.000455                       # miss rate for WriteReq accesses (Ratio)
board.cache_hierarchy.clusters.l1dcache.WriteReq.avgMissLatency::processor.cores.core.data 37322.261830                       # average WriteReq miss latency ((Tick/Count))
board.cache_hierarchy.clusters.l1dcache.WriteReq.avgMissLatency::total 37322.261830                       # average WriteReq miss latency ((Tick/Count))
board.cache_hierarchy.clusters.l1dcache.WriteReq.mshrHits::processor.cores.core.data          495                       # number of WriteReq MSHR hits (Count)
board.cache_hierarchy.clusters.l1dcache.WriteReq.mshrHits::total          495                       # number of WriteReq MSHR hits (Count)
board.cache_hierarchy.clusters.l1dcache.WriteReq.mshrMisses::processor.cores.core.data          456                       # number of WriteReq MSHR misses (Count)
board.cache_hierarchy.clusters.l1dcache.WriteReq.mshrMisses::total          456                       # number of WriteReq MSHR misses (Count)
board.cache_hierarchy.clusters.l1dcache.WriteReq.mshrMissLatency::processor.cores.core.data     11477511                       # number of WriteReq MSHR miss ticks (Tick)
board.cache_hierarchy.clusters.l1dcache.WriteReq.mshrMissLatency::total     11477511                       # number of WriteReq MSHR miss ticks (Tick)
board.cache_hierarchy.clusters.l1dcache.WriteReq.mshrMissRate::processor.cores.core.data     0.000218                       # mshr miss rate for WriteReq accesses (Ratio)
board.cache_hierarchy.clusters.l1dcache.WriteReq.mshrMissRate::total     0.000218                       # mshr miss rate for WriteReq accesses (Ratio)
board.cache_hierarchy.clusters.l1dcache.WriteReq.avgMshrMissLatency::processor.cores.core.data 25169.980263                       # average WriteReq mshr miss latency ((Tick/Count))
board.cache_hierarchy.clusters.l1dcache.WriteReq.avgMshrMissLatency::total 25169.980263                       # average WriteReq mshr miss latency ((Tick/Count))
board.cache_hierarchy.clusters.l1dcache.power_state.pwrStateResidencyTicks::UNDEFINED  14977324350                       # Cumulative time (in ticks) in various power states (Tick)
board.cache_hierarchy.clusters.l1dcache.prefetcher.demandMshrMisses        63278                       # demands not covered by prefetchs (Count)
board.cache_hierarchy.clusters.l1dcache.prefetcher.pfIssued        12549                       # number of hwpf issued (Count)
board.cache_hierarchy.clusters.l1dcache.prefetcher.pfUnused          684                       # number of HardPF blocks evicted w/o reference (Count)
board.cache_hierarchy.clusters.l1dcache.prefetcher.pfUseful         2713                       # number of useful prefetch (Count)
board.cache_hierarchy.clusters.l1dcache.prefetcher.pfUsefulButMiss            0                       # number of hit on prefetch but cache block is not in an usable state (Count)
board.cache_hierarchy.clusters.l1dcache.prefetcher.accuracy     0.216193                       # accuracy of the prefetcher (Count)
board.cache_hierarchy.clusters.l1dcache.prefetcher.coverage     0.041112                       # coverage brought by this prefetcher (Count)
board.cache_hierarchy.clusters.l1dcache.prefetcher.pfHitInCache         8452                       # number of prefetches hitting in cache (Count)
board.cache_hierarchy.clusters.l1dcache.prefetcher.pfHitInMSHR          665                       # number of prefetches hitting in a MSHR (Count)
board.cache_hierarchy.clusters.l1dcache.prefetcher.pfHitInWB            0                       # number of prefetches hit in the Write Buffer (Count)
board.cache_hierarchy.clusters.l1dcache.prefetcher.pfLate         9117                       # number of late prefetches (hitting in cache, MSHR or WB) (Count)
board.cache_hierarchy.clusters.l1dcache.prefetcher.pfIdentified        12969                       # number of prefetch candidates identified (Count)
board.cache_hierarchy.clusters.l1dcache.prefetcher.pfBufferHit          358                       # number of redundant prefetches already in prefetch queue (Count)
board.cache_hierarchy.clusters.l1dcache.prefetcher.pfInCache            0                       # number of redundant prefetches already in cache/mshr dropped (Count)
board.cache_hierarchy.clusters.l1dcache.prefetcher.pfRemovedDemand            2                       # number of prefetches dropped due to a demand for the same address (Count)
board.cache_hierarchy.clusters.l1dcache.prefetcher.pfRemovedFull            0                       # number of prefetches dropped due to prefetch queue size (Count)
board.cache_hierarchy.clusters.l1dcache.prefetcher.pfSpanPage          779                       # number of prefetches that crossed the page (Count)
board.cache_hierarchy.clusters.l1dcache.prefetcher.pfUsefulSpanPage          531                       # number of prefetches that is useful and crossed the page (Count)
board.cache_hierarchy.clusters.l1dcache.prefetcher.power_state.pwrStateResidencyTicks::UNDEFINED  14977324350                       # Cumulative time (in ticks) in various power states (Tick)
board.cache_hierarchy.clusters.l1dcache.tags.tagsInUse   511.177169                       # Average ticks per tags in use ((Tick/Count))
board.cache_hierarchy.clusters.l1dcache.tags.totalRefs     14378516                       # Total number of references to valid blocks. (Count)
board.cache_hierarchy.clusters.l1dcache.tags.sampledRefs        66705                       # Sample count of references to valid blocks. (Count)
board.cache_hierarchy.clusters.l1dcache.tags.avgRefs   215.553797                       # Average number of references to valid blocks. ((Count/Count))
board.cache_hierarchy.clusters.l1dcache.tags.warmupTick       142524                       # The tick when the warmup percentage was hit. (Tick)
board.cache_hierarchy.clusters.l1dcache.tags.occupancies::cache_hierarchy.clusters.l1dcache.prefetcher    25.928091                       # Average occupied blocks per tick, per requestor ((Count/Tick))
board.cache_hierarchy.clusters.l1dcache.tags.occupancies::processor.cores.core.data   485.249078                       # Average occupied blocks per tick, per requestor ((Count/Tick))
board.cache_hierarchy.clusters.l1dcache.tags.avgOccs::cache_hierarchy.clusters.l1dcache.prefetcher     0.050641                       # Average percentage of cache occupancy ((Ratio/Tick))
board.cache_hierarchy.clusters.l1dcache.tags.avgOccs::processor.cores.core.data     0.947752                       # Average percentage of cache occupancy ((Ratio/Tick))
board.cache_hierarchy.clusters.l1dcache.tags.avgOccs::total     0.998393                       # Average percentage of cache occupancy ((Ratio/Tick))
board.cache_hierarchy.clusters.l1dcache.tags.occupanciesTaskId::1022          428                       # Occupied blocks per task id (Count)
board.cache_hierarchy.clusters.l1dcache.tags.occupanciesTaskId::1024           84                       # Occupied blocks per task id (Count)
board.cache_hierarchy.clusters.l1dcache.tags.ageTaskId_1022::0           25                       # Occupied blocks per task id, per block age (Count)
board.cache_hierarchy.clusters.l1dcache.tags.ageTaskId_1022::1          403                       # Occupied blocks per task id, per block age (Count)
board.cache_hierarchy.clusters.l1dcache.tags.ageTaskId_1024::0           75                       # Occupied blocks per task id, per block age (Count)
board.cache_hierarchy.clusters.l1dcache.tags.ageTaskId_1024::1            7                       # Occupied blocks per task id, per block age (Count)
board.cache_hierarchy.clusters.l1dcache.tags.ageTaskId_1024::4            2                       # Occupied blocks per task id, per block age (Count)
board.cache_hierarchy.clusters.l1dcache.tags.ratioOccsTaskId::1022     0.835938                       # Ratio of occupied blocks and all blocks, per task id (Ratio)
board.cache_hierarchy.clusters.l1dcache.tags.ratioOccsTaskId::1024     0.164062                       # Ratio of occupied blocks and all blocks, per task id (Ratio)
board.cache_hierarchy.clusters.l1dcache.tags.tagAccesses    115071977                       # Number of tag accesses (Count)
board.cache_hierarchy.clusters.l1dcache.tags.dataAccesses    115071977                       # Number of data accesses (Count)
board.cache_hierarchy.clusters.l1dcache.tags.power_state.pwrStateResidencyTicks::UNDEFINED  14977324350                       # Cumulative time (in ticks) in various power states (Tick)
board.cache_hierarchy.clusters.l1icache.demandHits::processor.cores.core.inst      2124301                       # number of demand (read+write) hits (Count)
board.cache_hierarchy.clusters.l1icache.demandHits::total      2124301                       # number of demand (read+write) hits (Count)
board.cache_hierarchy.clusters.l1icache.overallHits::processor.cores.core.inst      2124301                       # number of overall hits (Count)
board.cache_hierarchy.clusters.l1icache.overallHits::total      2124301                       # number of overall hits (Count)
board.cache_hierarchy.clusters.l1icache.demandMisses::processor.cores.core.inst          474                       # number of demand (read+write) misses (Count)
board.cache_hierarchy.clusters.l1icache.demandMisses::total          474                       # number of demand (read+write) misses (Count)
board.cache_hierarchy.clusters.l1icache.overallMisses::processor.cores.core.inst          474                       # number of overall misses (Count)
board.cache_hierarchy.clusters.l1icache.overallMisses::total          474                       # number of overall misses (Count)
board.cache_hierarchy.clusters.l1icache.demandMissLatency::processor.cores.core.inst     28378593                       # number of demand (read+write) miss ticks (Tick)
board.cache_hierarchy.clusters.l1icache.demandMissLatency::total     28378593                       # number of demand (read+write) miss ticks (Tick)
board.cache_hierarchy.clusters.l1icache.overallMissLatency::processor.cores.core.inst     28378593                       # number of overall miss ticks (Tick)
board.cache_hierarchy.clusters.l1icache.overallMissLatency::total     28378593                       # number of overall miss ticks (Tick)
board.cache_hierarchy.clusters.l1icache.demandAccesses::processor.cores.core.inst      2124775                       # number of demand (read+write) accesses (Count)
board.cache_hierarchy.clusters.l1icache.demandAccesses::total      2124775                       # number of demand (read+write) accesses (Count)
board.cache_hierarchy.clusters.l1icache.overallAccesses::processor.cores.core.inst      2124775                       # number of overall (read+write) accesses (Count)
board.cache_hierarchy.clusters.l1icache.overallAccesses::total      2124775                       # number of overall (read+write) accesses (Count)
board.cache_hierarchy.clusters.l1icache.demandMissRate::processor.cores.core.inst     0.000223                       # miss rate for demand accesses (Ratio)
board.cache_hierarchy.clusters.l1icache.demandMissRate::total     0.000223                       # miss rate for demand accesses (Ratio)
board.cache_hierarchy.clusters.l1icache.overallMissRate::processor.cores.core.inst     0.000223                       # miss rate for overall accesses (Ratio)
board.cache_hierarchy.clusters.l1icache.overallMissRate::total     0.000223                       # miss rate for overall accesses (Ratio)
board.cache_hierarchy.clusters.l1icache.demandAvgMissLatency::processor.cores.core.inst 59870.449367                       # average overall miss latency in ticks ((Tick/Count))
board.cache_hierarchy.clusters.l1icache.demandAvgMissLatency::total 59870.449367                       # average overall miss latency in ticks ((Tick/Count))
board.cache_hierarchy.clusters.l1icache.overallAvgMissLatency::processor.cores.core.inst 59870.449367                       # average overall miss latency ((Tick/Count))
board.cache_hierarchy.clusters.l1icache.overallAvgMissLatency::total 59870.449367                       # average overall miss latency ((Tick/Count))
board.cache_hierarchy.clusters.l1icache.blockedCycles::no_mshrs            0                       # number of cycles access was blocked (Cycle)
board.cache_hierarchy.clusters.l1icache.blockedCycles::no_targets            0                       # number of cycles access was blocked (Cycle)
board.cache_hierarchy.clusters.l1icache.blockedCauses::no_mshrs            0                       # number of times access was blocked (Count)
board.cache_hierarchy.clusters.l1icache.blockedCauses::no_targets            0                       # number of times access was blocked (Count)
board.cache_hierarchy.clusters.l1icache.avgBlocked::no_mshrs          nan                       # average number of cycles each access was blocked ((Cycle/Count))
board.cache_hierarchy.clusters.l1icache.avgBlocked::no_targets          nan                       # average number of cycles each access was blocked ((Cycle/Count))
board.cache_hierarchy.clusters.l1icache.demandMshrHits::processor.cores.core.inst           84                       # number of demand (read+write) MSHR hits (Count)
board.cache_hierarchy.clusters.l1icache.demandMshrHits::total           84                       # number of demand (read+write) MSHR hits (Count)
board.cache_hierarchy.clusters.l1icache.overallMshrHits::processor.cores.core.inst           84                       # number of overall MSHR hits (Count)
board.cache_hierarchy.clusters.l1icache.overallMshrHits::total           84                       # number of overall MSHR hits (Count)
board.cache_hierarchy.clusters.l1icache.demandMshrMisses::processor.cores.core.inst          390                       # number of demand (read+write) MSHR misses (Count)
board.cache_hierarchy.clusters.l1icache.demandMshrMisses::total          390                       # number of demand (read+write) MSHR misses (Count)
board.cache_hierarchy.clusters.l1icache.overallMshrMisses::processor.cores.core.inst          390                       # number of overall MSHR misses (Count)
board.cache_hierarchy.clusters.l1icache.overallMshrMisses::total          390                       # number of overall MSHR misses (Count)
board.cache_hierarchy.clusters.l1icache.demandMshrMissLatency::processor.cores.core.inst     24106869                       # number of demand (read+write) MSHR miss ticks (Tick)
board.cache_hierarchy.clusters.l1icache.demandMshrMissLatency::total     24106869                       # number of demand (read+write) MSHR miss ticks (Tick)
board.cache_hierarchy.clusters.l1icache.overallMshrMissLatency::processor.cores.core.inst     24106869                       # number of overall MSHR miss ticks (Tick)
board.cache_hierarchy.clusters.l1icache.overallMshrMissLatency::total     24106869                       # number of overall MSHR miss ticks (Tick)
board.cache_hierarchy.clusters.l1icache.demandMshrMissRate::processor.cores.core.inst     0.000184                       # mshr miss ratio for demand accesses (Ratio)
board.cache_hierarchy.clusters.l1icache.demandMshrMissRate::total     0.000184                       # mshr miss ratio for demand accesses (Ratio)
board.cache_hierarchy.clusters.l1icache.overallMshrMissRate::processor.cores.core.inst     0.000184                       # mshr miss ratio for overall accesses (Ratio)
board.cache_hierarchy.clusters.l1icache.overallMshrMissRate::total     0.000184                       # mshr miss ratio for overall accesses (Ratio)
board.cache_hierarchy.clusters.l1icache.demandAvgMshrMissLatency::processor.cores.core.inst 61812.484615                       # average overall mshr miss latency ((Tick/Count))
board.cache_hierarchy.clusters.l1icache.demandAvgMshrMissLatency::total 61812.484615                       # average overall mshr miss latency ((Tick/Count))
board.cache_hierarchy.clusters.l1icache.overallAvgMshrMissLatency::processor.cores.core.inst 61812.484615                       # average overall mshr miss latency ((Tick/Count))
board.cache_hierarchy.clusters.l1icache.overallAvgMshrMissLatency::total 61812.484615                       # average overall mshr miss latency ((Tick/Count))
board.cache_hierarchy.clusters.l1icache.replacements           13                       # number of replacements (Count)
board.cache_hierarchy.clusters.l1icache.ReadReq.hits::processor.cores.core.inst      2124301                       # number of ReadReq hits (Count)
board.cache_hierarchy.clusters.l1icache.ReadReq.hits::total      2124301                       # number of ReadReq hits (Count)
board.cache_hierarchy.clusters.l1icache.ReadReq.misses::processor.cores.core.inst          474                       # number of ReadReq misses (Count)
board.cache_hierarchy.clusters.l1icache.ReadReq.misses::total          474                       # number of ReadReq misses (Count)
board.cache_hierarchy.clusters.l1icache.ReadReq.missLatency::processor.cores.core.inst     28378593                       # number of ReadReq miss ticks (Tick)
board.cache_hierarchy.clusters.l1icache.ReadReq.missLatency::total     28378593                       # number of ReadReq miss ticks (Tick)
board.cache_hierarchy.clusters.l1icache.ReadReq.accesses::processor.cores.core.inst      2124775                       # number of ReadReq accesses(hits+misses) (Count)
board.cache_hierarchy.clusters.l1icache.ReadReq.accesses::total      2124775                       # number of ReadReq accesses(hits+misses) (Count)
board.cache_hierarchy.clusters.l1icache.ReadReq.missRate::processor.cores.core.inst     0.000223                       # miss rate for ReadReq accesses (Ratio)
board.cache_hierarchy.clusters.l1icache.ReadReq.missRate::total     0.000223                       # miss rate for ReadReq accesses (Ratio)
board.cache_hierarchy.clusters.l1icache.ReadReq.avgMissLatency::processor.cores.core.inst 59870.449367                       # average ReadReq miss latency ((Tick/Count))
board.cache_hierarchy.clusters.l1icache.ReadReq.avgMissLatency::total 59870.449367                       # average ReadReq miss latency ((Tick/Count))
board.cache_hierarchy.clusters.l1icache.ReadReq.mshrHits::processor.cores.core.inst           84                       # number of ReadReq MSHR hits (Count)
board.cache_hierarchy.clusters.l1icache.ReadReq.mshrHits::total           84                       # number of ReadReq MSHR hits (Count)
board.cache_hierarchy.clusters.l1icache.ReadReq.mshrMisses::processor.cores.core.inst          390                       # number of ReadReq MSHR misses (Count)
board.cache_hierarchy.clusters.l1icache.ReadReq.mshrMisses::total          390                       # number of ReadReq MSHR misses (Count)
board.cache_hierarchy.clusters.l1icache.ReadReq.mshrMissLatency::processor.cores.core.inst     24106869                       # number of ReadReq MSHR miss ticks (Tick)
board.cache_hierarchy.clusters.l1icache.ReadReq.mshrMissLatency::total     24106869                       # number of ReadReq MSHR miss ticks (Tick)
board.cache_hierarchy.clusters.l1icache.ReadReq.mshrMissRate::processor.cores.core.inst     0.000184                       # mshr miss rate for ReadReq accesses (Ratio)
board.cache_hierarchy.clusters.l1icache.ReadReq.mshrMissRate::total     0.000184                       # mshr miss rate for ReadReq accesses (Ratio)
board.cache_hierarchy.clusters.l1icache.ReadReq.avgMshrMissLatency::processor.cores.core.inst 61812.484615                       # average ReadReq mshr miss latency ((Tick/Count))
board.cache_hierarchy.clusters.l1icache.ReadReq.avgMshrMissLatency::total 61812.484615                       # average ReadReq mshr miss latency ((Tick/Count))
board.cache_hierarchy.clusters.l1icache.power_state.pwrStateResidencyTicks::UNDEFINED  14977324350                       # Cumulative time (in ticks) in various power states (Tick)
board.cache_hierarchy.clusters.l1icache.prefetcher.demandMshrMisses          390                       # demands not covered by prefetchs (Count)
board.cache_hierarchy.clusters.l1icache.prefetcher.pfIssued            0                       # number of hwpf issued (Count)
board.cache_hierarchy.clusters.l1icache.prefetcher.pfUseful            0                       # number of useful prefetch (Count)
board.cache_hierarchy.clusters.l1icache.prefetcher.pfUsefulButMiss            0                       # number of hit on prefetch but cache block is not in an usable state (Count)
board.cache_hierarchy.clusters.l1icache.prefetcher.accuracy          nan                       # accuracy of the prefetcher (Count)
board.cache_hierarchy.clusters.l1icache.prefetcher.coverage            0                       # coverage brought by this prefetcher (Count)
board.cache_hierarchy.clusters.l1icache.prefetcher.pfHitInCache            0                       # number of prefetches hitting in cache (Count)
board.cache_hierarchy.clusters.l1icache.prefetcher.pfHitInMSHR            0                       # number of prefetches hitting in a MSHR (Count)
board.cache_hierarchy.clusters.l1icache.prefetcher.pfHitInWB            0                       # number of prefetches hit in the Write Buffer (Count)
board.cache_hierarchy.clusters.l1icache.prefetcher.pfLate            0                       # number of late prefetches (hitting in cache, MSHR or WB) (Count)
board.cache_hierarchy.clusters.l1icache.prefetcher.pfIdentified            0                       # number of prefetch candidates identified (Count)
board.cache_hierarchy.clusters.l1icache.prefetcher.pfBufferHit            0                       # number of redundant prefetches already in prefetch queue (Count)
board.cache_hierarchy.clusters.l1icache.prefetcher.pfInCache            0                       # number of redundant prefetches already in cache/mshr dropped (Count)
board.cache_hierarchy.clusters.l1icache.prefetcher.pfRemovedDemand            0                       # number of prefetches dropped due to a demand for the same address (Count)
board.cache_hierarchy.clusters.l1icache.prefetcher.pfRemovedFull            0                       # number of prefetches dropped due to prefetch queue size (Count)
board.cache_hierarchy.clusters.l1icache.prefetcher.pfSpanPage            0                       # number of prefetches that crossed the page (Count)
board.cache_hierarchy.clusters.l1icache.prefetcher.pfUsefulSpanPage            0                       # number of prefetches that is useful and crossed the page (Count)
board.cache_hierarchy.clusters.l1icache.prefetcher.power_state.pwrStateResidencyTicks::UNDEFINED  14977324350                       # Cumulative time (in ticks) in various power states (Tick)
board.cache_hierarchy.clusters.l1icache.tags.tagsInUse   278.847065                       # Average ticks per tags in use ((Tick/Count))
board.cache_hierarchy.clusters.l1icache.tags.totalRefs      2124689                       # Total number of references to valid blocks. (Count)
board.cache_hierarchy.clusters.l1icache.tags.sampledRefs          388                       # Sample count of references to valid blocks. (Count)
board.cache_hierarchy.clusters.l1icache.tags.avgRefs  5476.002577                       # Average number of references to valid blocks. ((Count/Count))
board.cache_hierarchy.clusters.l1icache.tags.warmupTick        70596                       # The tick when the warmup percentage was hit. (Tick)
board.cache_hierarchy.clusters.l1icache.tags.occupancies::processor.cores.core.inst   278.847065                       # Average occupied blocks per tick, per requestor ((Count/Tick))
board.cache_hierarchy.clusters.l1icache.tags.avgOccs::processor.cores.core.inst     0.544623                       # Average percentage of cache occupancy ((Ratio/Tick))
board.cache_hierarchy.clusters.l1icache.tags.avgOccs::total     0.544623                       # Average percentage of cache occupancy ((Ratio/Tick))
board.cache_hierarchy.clusters.l1icache.tags.occupanciesTaskId::1024          375                       # Occupied blocks per task id (Count)
board.cache_hierarchy.clusters.l1icache.tags.ageTaskId_1024::0          101                       # Occupied blocks per task id, per block age (Count)
board.cache_hierarchy.clusters.l1icache.tags.ageTaskId_1024::1            6                       # Occupied blocks per task id, per block age (Count)
board.cache_hierarchy.clusters.l1icache.tags.ageTaskId_1024::4          268                       # Occupied blocks per task id, per block age (Count)
board.cache_hierarchy.clusters.l1icache.tags.ratioOccsTaskId::1024     0.732422                       # Ratio of occupied blocks and all blocks, per task id (Ratio)
board.cache_hierarchy.clusters.l1icache.tags.tagAccesses     16998588                       # Number of tag accesses (Count)
board.cache_hierarchy.clusters.l1icache.tags.dataAccesses     16998588                       # Number of data accesses (Count)
board.cache_hierarchy.clusters.l1icache.tags.power_state.pwrStateResidencyTicks::UNDEFINED  14977324350                       # Cumulative time (in ticks) in various power states (Tick)
board.cache_hierarchy.clusters.l2_bus.transDist::ReadResp        66643                       # Transaction distribution (Count)
board.cache_hierarchy.clusters.l2_bus.transDist::WritebackDirty        68049                       # Transaction distribution (Count)
board.cache_hierarchy.clusters.l2_bus.transDist::CleanEvict         2239                       # Transaction distribution (Count)
board.cache_hierarchy.clusters.l2_bus.transDist::HardPFReq         3406                       # Transaction distribution (Count)
board.cache_hierarchy.clusters.l2_bus.transDist::UpgradeReq            7                       # Transaction distribution (Count)
board.cache_hierarchy.clusters.l2_bus.transDist::SCUpgradeReq            3                       # Transaction distribution (Count)
board.cache_hierarchy.clusters.l2_bus.transDist::UpgradeResp           10                       # Transaction distribution (Count)
board.cache_hierarchy.clusters.l2_bus.transDist::ReadExReq          450                       # Transaction distribution (Count)
board.cache_hierarchy.clusters.l2_bus.transDist::ReadExResp          450                       # Transaction distribution (Count)
board.cache_hierarchy.clusters.l2_bus.transDist::ReadSharedReq        66646                       # Transaction distribution (Count)
board.cache_hierarchy.clusters.l2_bus.pktCount_board.cache_hierarchy.clusters.l1dcache.mem_side_port::board.cache_hierarchy.clusters.l2cache.cpu_side_port       199624                       # Packet count per connected requestor and responder (Count)
board.cache_hierarchy.clusters.l2_bus.pktCount_board.cache_hierarchy.clusters.l1icache.mem_side_port::board.cache_hierarchy.clusters.l2cache.cpu_side_port          791                       # Packet count per connected requestor and responder (Count)
board.cache_hierarchy.clusters.l2_bus.pktCount::total       200415                       # Packet count per connected requestor and responder (Count)
board.cache_hierarchy.clusters.l2_bus.pktSize_board.cache_hierarchy.clusters.l1dcache.mem_side_port::board.cache_hierarchy.clusters.l2cache.cpu_side_port      8461504                       # Cumulative packet size per connected requestor and responder (Byte)
board.cache_hierarchy.clusters.l2_bus.pktSize_board.cache_hierarchy.clusters.l1icache.mem_side_port::board.cache_hierarchy.clusters.l2cache.cpu_side_port        24832                       # Cumulative packet size per connected requestor and responder (Byte)
board.cache_hierarchy.clusters.l2_bus.pktSize::total      8486336                       # Cumulative packet size per connected requestor and responder (Byte)
board.cache_hierarchy.clusters.l2_bus.snoops         7488                       # Total snoops (Count)
board.cache_hierarchy.clusters.l2_bus.snoopTraffic       162752                       # Total snoop traffic (Byte)
board.cache_hierarchy.clusters.l2_bus.snoopFanout::samples        74594                       # Request fanout histogram (Count)
board.cache_hierarchy.clusters.l2_bus.snoopFanout::mean     0.018152                       # Request fanout histogram (Count)
board.cache_hierarchy.clusters.l2_bus.snoopFanout::stdev     0.133500                       # Request fanout histogram (Count)
board.cache_hierarchy.clusters.l2_bus.snoopFanout::underflows            0      0.00%      0.00% # Request fanout histogram (Count)
board.cache_hierarchy.clusters.l2_bus.snoopFanout::0        73240     98.18%     98.18% # Request fanout histogram (Count)
board.cache_hierarchy.clusters.l2_bus.snoopFanout::1         1354      1.82%    100.00% # Request fanout histogram (Count)
board.cache_hierarchy.clusters.l2_bus.snoopFanout::2            0      0.00%    100.00% # Request fanout histogram (Count)
board.cache_hierarchy.clusters.l2_bus.snoopFanout::3            0      0.00%    100.00% # Request fanout histogram (Count)
board.cache_hierarchy.clusters.l2_bus.snoopFanout::4            0      0.00%    100.00% # Request fanout histogram (Count)
board.cache_hierarchy.clusters.l2_bus.snoopFanout::overflows            0      0.00%    100.00% # Request fanout histogram (Count)
board.cache_hierarchy.clusters.l2_bus.snoopFanout::min_value            0                       # Request fanout histogram (Count)
board.cache_hierarchy.clusters.l2_bus.snoopFanout::max_value            1                       # Request fanout histogram (Count)
board.cache_hierarchy.clusters.l2_bus.snoopFanout::total        74594                       # Request fanout histogram (Count)
board.cache_hierarchy.clusters.l2_bus.power_state.pwrStateResidencyTicks::UNDEFINED  14977324350                       # Cumulative time (in ticks) in various power states (Tick)
board.cache_hierarchy.clusters.l2_bus.reqLayer0.occupancy     88821803                       # Layer occupancy (ticks) (Tick)
board.cache_hierarchy.clusters.l2_bus.reqLayer0.utilization          0.0                       # Layer utilization (Ratio)
board.cache_hierarchy.clusters.l2_bus.respLayer0.occupancy     66641625                       # Layer occupancy (ticks) (Tick)
board.cache_hierarchy.clusters.l2_bus.respLayer0.utilization          0.0                       # Layer utilization (Ratio)
board.cache_hierarchy.clusters.l2_bus.respLayer1.occupancy       387612                       # Layer occupancy (ticks) (Tick)
board.cache_hierarchy.clusters.l2_bus.respLayer1.utilization          0.0                       # Layer utilization (Ratio)
board.cache_hierarchy.clusters.l2_bus.snoop_filter.totRequests       133312                       # Total number of requests made to the snoop filter. (Count)
board.cache_hierarchy.clusters.l2_bus.snoop_filter.hitSingleRequests        66216                       # Number of requests hitting in the snoop filter with a single holder of the requested data. (Count)
board.cache_hierarchy.clusters.l2_bus.snoop_filter.hitMultiRequests            0                       # Number of requests hitting in the snoop filter with multiple (>1) holders of the requested data. (Count)
board.cache_hierarchy.clusters.l2_bus.snoop_filter.totSnoops         1354                       # Total number of snoops made to the snoop filter. (Count)
board.cache_hierarchy.clusters.l2_bus.snoop_filter.hitSingleSnoops         1354                       # Number of snoops hitting in the snoop filter with a single holder of the requested data. (Count)
board.cache_hierarchy.clusters.l2_bus.snoop_filter.hitMultiSnoops            0                       # Number of snoops hitting in the snoop filter with multiple (>1) holders of the requested data. (Count)
board.cache_hierarchy.clusters.l2cache.demandHits::cache_hierarchy.clusters.l1dcache.prefetcher         3152                       # number of demand (read+write) hits (Count)
board.cache_hierarchy.clusters.l2cache.demandHits::processor.cores.core.inst            1                       # number of demand (read+write) hits (Count)
board.cache_hierarchy.clusters.l2cache.demandHits::processor.cores.core.data        62757                       # number of demand (read+write) hits (Count)
board.cache_hierarchy.clusters.l2cache.demandHits::total        65910                       # number of demand (read+write) hits (Count)
board.cache_hierarchy.clusters.l2cache.overallHits::cache_hierarchy.clusters.l1dcache.prefetcher         3152                       # number of overall hits (Count)
board.cache_hierarchy.clusters.l2cache.overallHits::processor.cores.core.inst            1                       # number of overall hits (Count)
board.cache_hierarchy.clusters.l2cache.overallHits::processor.cores.core.data        62757                       # number of overall hits (Count)
board.cache_hierarchy.clusters.l2cache.overallHits::total        65910                       # number of overall hits (Count)
board.cache_hierarchy.clusters.l2cache.demandMisses::cache_hierarchy.clusters.l1dcache.prefetcher          280                       # number of demand (read+write) misses (Count)
board.cache_hierarchy.clusters.l2cache.demandMisses::processor.cores.core.inst          389                       # number of demand (read+write) misses (Count)
board.cache_hierarchy.clusters.l2cache.demandMisses::processor.cores.core.data          517                       # number of demand (read+write) misses (Count)
board.cache_hierarchy.clusters.l2cache.demandMisses::total         1186                       # number of demand (read+write) misses (Count)
board.cache_hierarchy.clusters.l2cache.overallMisses::cache_hierarchy.clusters.l1dcache.prefetcher          280                       # number of overall misses (Count)
board.cache_hierarchy.clusters.l2cache.overallMisses::processor.cores.core.inst          389                       # number of overall misses (Count)
board.cache_hierarchy.clusters.l2cache.overallMisses::processor.cores.core.data          517                       # number of overall misses (Count)
board.cache_hierarchy.clusters.l2cache.overallMisses::total         1186                       # number of overall misses (Count)
board.cache_hierarchy.clusters.l2cache.demandMissLatency::cache_hierarchy.clusters.l1dcache.prefetcher     15791762                       # number of demand (read+write) miss ticks (Tick)
board.cache_hierarchy.clusters.l2cache.demandMissLatency::processor.cores.core.inst     23842800                       # number of demand (read+write) miss ticks (Tick)
board.cache_hierarchy.clusters.l2cache.demandMissLatency::processor.cores.core.data     20713266                       # number of demand (read+write) miss ticks (Tick)
board.cache_hierarchy.clusters.l2cache.demandMissLatency::total     60347828                       # number of demand (read+write) miss ticks (Tick)
board.cache_hierarchy.clusters.l2cache.overallMissLatency::cache_hierarchy.clusters.l1dcache.prefetcher     15791762                       # number of overall miss ticks (Tick)
board.cache_hierarchy.clusters.l2cache.overallMissLatency::processor.cores.core.inst     23842800                       # number of overall miss ticks (Tick)
board.cache_hierarchy.clusters.l2cache.overallMissLatency::processor.cores.core.data     20713266                       # number of overall miss ticks (Tick)
board.cache_hierarchy.clusters.l2cache.overallMissLatency::total     60347828                       # number of overall miss ticks (Tick)
board.cache_hierarchy.clusters.l2cache.demandAccesses::cache_hierarchy.clusters.l1dcache.prefetcher         3432                       # number of demand (read+write) accesses (Count)
board.cache_hierarchy.clusters.l2cache.demandAccesses::processor.cores.core.inst          390                       # number of demand (read+write) accesses (Count)
board.cache_hierarchy.clusters.l2cache.demandAccesses::processor.cores.core.data        63274                       # number of demand (read+write) accesses (Count)
board.cache_hierarchy.clusters.l2cache.demandAccesses::total        67096                       # number of demand (read+write) accesses (Count)
board.cache_hierarchy.clusters.l2cache.overallAccesses::cache_hierarchy.clusters.l1dcache.prefetcher         3432                       # number of overall (read+write) accesses (Count)
board.cache_hierarchy.clusters.l2cache.overallAccesses::processor.cores.core.inst          390                       # number of overall (read+write) accesses (Count)
board.cache_hierarchy.clusters.l2cache.overallAccesses::processor.cores.core.data        63274                       # number of overall (read+write) accesses (Count)
board.cache_hierarchy.clusters.l2cache.overallAccesses::total        67096                       # number of overall (read+write) accesses (Count)
board.cache_hierarchy.clusters.l2cache.demandMissRate::cache_hierarchy.clusters.l1dcache.prefetcher     0.081585                       # miss rate for demand accesses (Ratio)
board.cache_hierarchy.clusters.l2cache.demandMissRate::processor.cores.core.inst     0.997436                       # miss rate for demand accesses (Ratio)
board.cache_hierarchy.clusters.l2cache.demandMissRate::processor.cores.core.data     0.008171                       # miss rate for demand accesses (Ratio)
board.cache_hierarchy.clusters.l2cache.demandMissRate::total     0.017676                       # miss rate for demand accesses (Ratio)
board.cache_hierarchy.clusters.l2cache.overallMissRate::cache_hierarchy.clusters.l1dcache.prefetcher     0.081585                       # miss rate for overall accesses (Ratio)
board.cache_hierarchy.clusters.l2cache.overallMissRate::processor.cores.core.inst     0.997436                       # miss rate for overall accesses (Ratio)
board.cache_hierarchy.clusters.l2cache.overallMissRate::processor.cores.core.data     0.008171                       # miss rate for overall accesses (Ratio)
board.cache_hierarchy.clusters.l2cache.overallMissRate::total     0.017676                       # miss rate for overall accesses (Ratio)
board.cache_hierarchy.clusters.l2cache.demandAvgMissLatency::cache_hierarchy.clusters.l1dcache.prefetcher 56399.150000                       # average overall miss latency in ticks ((Tick/Count))
board.cache_hierarchy.clusters.l2cache.demandAvgMissLatency::processor.cores.core.inst 61292.544987                       # average overall miss latency in ticks ((Tick/Count))
board.cache_hierarchy.clusters.l2cache.demandAvgMissLatency::processor.cores.core.data 40064.344294                       # average overall miss latency in ticks ((Tick/Count))
board.cache_hierarchy.clusters.l2cache.demandAvgMissLatency::total 50883.497470                       # average overall miss latency in ticks ((Tick/Count))
board.cache_hierarchy.clusters.l2cache.overallAvgMissLatency::cache_hierarchy.clusters.l1dcache.prefetcher 56399.150000                       # average overall miss latency ((Tick/Count))
board.cache_hierarchy.clusters.l2cache.overallAvgMissLatency::processor.cores.core.inst 61292.544987                       # average overall miss latency ((Tick/Count))
board.cache_hierarchy.clusters.l2cache.overallAvgMissLatency::processor.cores.core.data 40064.344294                       # average overall miss latency ((Tick/Count))
board.cache_hierarchy.clusters.l2cache.overallAvgMissLatency::total 50883.497470                       # average overall miss latency ((Tick/Count))
board.cache_hierarchy.clusters.l2cache.blockedCycles::no_mshrs            0                       # number of cycles access was blocked (Cycle)
board.cache_hierarchy.clusters.l2cache.blockedCycles::no_targets            0                       # number of cycles access was blocked (Cycle)
board.cache_hierarchy.clusters.l2cache.blockedCauses::no_mshrs            0                       # number of times access was blocked (Count)
board.cache_hierarchy.clusters.l2cache.blockedCauses::no_targets            0                       # number of times access was blocked (Count)
board.cache_hierarchy.clusters.l2cache.avgBlocked::no_mshrs          nan                       # average number of cycles each access was blocked ((Cycle/Count))
board.cache_hierarchy.clusters.l2cache.avgBlocked::no_targets          nan                       # average number of cycles each access was blocked ((Cycle/Count))
board.cache_hierarchy.clusters.l2cache.writebacks::writebacks         2543                       # number of writebacks (Count)
board.cache_hierarchy.clusters.l2cache.writebacks::total         2543                       # number of writebacks (Count)
board.cache_hierarchy.clusters.l2cache.demandMshrHits::cache_hierarchy.clusters.l1dcache.prefetcher          170                       # number of demand (read+write) MSHR hits (Count)
board.cache_hierarchy.clusters.l2cache.demandMshrHits::total          170                       # number of demand (read+write) MSHR hits (Count)
board.cache_hierarchy.clusters.l2cache.overallMshrHits::cache_hierarchy.clusters.l1dcache.prefetcher          170                       # number of overall MSHR hits (Count)
board.cache_hierarchy.clusters.l2cache.overallMshrHits::total          170                       # number of overall MSHR hits (Count)
board.cache_hierarchy.clusters.l2cache.demandMshrMisses::cache_hierarchy.clusters.l1dcache.prefetcher          110                       # number of demand (read+write) MSHR misses (Count)
board.cache_hierarchy.clusters.l2cache.demandMshrMisses::processor.cores.core.inst          389                       # number of demand (read+write) MSHR misses (Count)
board.cache_hierarchy.clusters.l2cache.demandMshrMisses::processor.cores.core.data          517                       # number of demand (read+write) MSHR misses (Count)
board.cache_hierarchy.clusters.l2cache.demandMshrMisses::total         1016                       # number of demand (read+write) MSHR misses (Count)
board.cache_hierarchy.clusters.l2cache.overallMshrMisses::cache_hierarchy.clusters.l1dcache.prefetcher          110                       # number of overall MSHR misses (Count)
board.cache_hierarchy.clusters.l2cache.overallMshrMisses::cache_hierarchy.clusters.l2cache.prefetcher         3032                       # number of overall MSHR misses (Count)
board.cache_hierarchy.clusters.l2cache.overallMshrMisses::processor.cores.core.inst          389                       # number of overall MSHR misses (Count)
board.cache_hierarchy.clusters.l2cache.overallMshrMisses::processor.cores.core.data          517                       # number of overall MSHR misses (Count)
board.cache_hierarchy.clusters.l2cache.overallMshrMisses::total         4048                       # number of overall MSHR misses (Count)
board.cache_hierarchy.clusters.l2cache.demandMshrMissLatency::cache_hierarchy.clusters.l1dcache.prefetcher      7994643                       # number of demand (read+write) MSHR miss ticks (Tick)
board.cache_hierarchy.clusters.l2cache.demandMshrMissLatency::processor.cores.core.inst     23713929                       # number of demand (read+write) MSHR miss ticks (Tick)
board.cache_hierarchy.clusters.l2cache.demandMshrMissLatency::processor.cores.core.data     20541438                       # number of demand (read+write) MSHR miss ticks (Tick)
board.cache_hierarchy.clusters.l2cache.demandMshrMissLatency::total     52250010                       # number of demand (read+write) MSHR miss ticks (Tick)
board.cache_hierarchy.clusters.l2cache.overallMshrMissLatency::cache_hierarchy.clusters.l1dcache.prefetcher      7994643                       # number of overall MSHR miss ticks (Tick)
board.cache_hierarchy.clusters.l2cache.overallMshrMissLatency::cache_hierarchy.clusters.l2cache.prefetcher    130304714                       # number of overall MSHR miss ticks (Tick)
board.cache_hierarchy.clusters.l2cache.overallMshrMissLatency::processor.cores.core.inst     23713929                       # number of overall MSHR miss ticks (Tick)
board.cache_hierarchy.clusters.l2cache.overallMshrMissLatency::processor.cores.core.data     20541438                       # number of overall MSHR miss ticks (Tick)
board.cache_hierarchy.clusters.l2cache.overallMshrMissLatency::total    182554724                       # number of overall MSHR miss ticks (Tick)
board.cache_hierarchy.clusters.l2cache.demandMshrMissRate::cache_hierarchy.clusters.l1dcache.prefetcher     0.032051                       # mshr miss ratio for demand accesses (Ratio)
board.cache_hierarchy.clusters.l2cache.demandMshrMissRate::processor.cores.core.inst     0.997436                       # mshr miss ratio for demand accesses (Ratio)
board.cache_hierarchy.clusters.l2cache.demandMshrMissRate::processor.cores.core.data     0.008171                       # mshr miss ratio for demand accesses (Ratio)
board.cache_hierarchy.clusters.l2cache.demandMshrMissRate::total     0.015142                       # mshr miss ratio for demand accesses (Ratio)
board.cache_hierarchy.clusters.l2cache.overallMshrMissRate::cache_hierarchy.clusters.l1dcache.prefetcher     0.032051                       # mshr miss ratio for overall accesses (Ratio)
board.cache_hierarchy.clusters.l2cache.overallMshrMissRate::cache_hierarchy.clusters.l2cache.prefetcher          inf                       # mshr miss ratio for overall accesses (Ratio)
board.cache_hierarchy.clusters.l2cache.overallMshrMissRate::processor.cores.core.inst     0.997436                       # mshr miss ratio for overall accesses (Ratio)
board.cache_hierarchy.clusters.l2cache.overallMshrMissRate::processor.cores.core.data     0.008171                       # mshr miss ratio for overall accesses (Ratio)
board.cache_hierarchy.clusters.l2cache.overallMshrMissRate::total     0.060331                       # mshr miss ratio for overall accesses (Ratio)
board.cache_hierarchy.clusters.l2cache.demandAvgMshrMissLatency::cache_hierarchy.clusters.l1dcache.prefetcher 72678.572727                       # average overall mshr miss latency ((Tick/Count))
board.cache_hierarchy.clusters.l2cache.demandAvgMshrMissLatency::processor.cores.core.inst 60961.257069                       # average overall mshr miss latency ((Tick/Count))
board.cache_hierarchy.clusters.l2cache.demandAvgMshrMissLatency::processor.cores.core.data 39731.988395                       # average overall mshr miss latency ((Tick/Count))
board.cache_hierarchy.clusters.l2cache.demandAvgMshrMissLatency::total 51427.175197                       # average overall mshr miss latency ((Tick/Count))
board.cache_hierarchy.clusters.l2cache.overallAvgMshrMissLatency::cache_hierarchy.clusters.l1dcache.prefetcher 72678.572727                       # average overall mshr miss latency ((Tick/Count))
board.cache_hierarchy.clusters.l2cache.overallAvgMshrMissLatency::cache_hierarchy.clusters.l2cache.prefetcher 42976.488786                       # average overall mshr miss latency ((Tick/Count))
board.cache_hierarchy.clusters.l2cache.overallAvgMshrMissLatency::processor.cores.core.inst 60961.257069                       # average overall mshr miss latency ((Tick/Count))
board.cache_hierarchy.clusters.l2cache.overallAvgMshrMissLatency::processor.cores.core.data 39731.988395                       # average overall mshr miss latency ((Tick/Count))
board.cache_hierarchy.clusters.l2cache.overallAvgMshrMissLatency::total 45097.510870                       # average overall mshr miss latency ((Tick/Count))
board.cache_hierarchy.clusters.l2cache.replacements         3660                       # number of replacements (Count)
board.cache_hierarchy.clusters.l2cache.CleanEvict.mshrMisses::writebacks           46                       # number of CleanEvict MSHR misses (Count)
board.cache_hierarchy.clusters.l2cache.CleanEvict.mshrMisses::total           46                       # number of CleanEvict MSHR misses (Count)
board.cache_hierarchy.clusters.l2cache.CleanEvict.mshrMissRate::writebacks          inf                       # mshr miss rate for CleanEvict accesses (Ratio)
board.cache_hierarchy.clusters.l2cache.CleanEvict.mshrMissRate::total          inf                       # mshr miss rate for CleanEvict accesses (Ratio)
board.cache_hierarchy.clusters.l2cache.HardPFReq.mshrMisses::cache_hierarchy.clusters.l2cache.prefetcher         3032                       # number of HardPFReq MSHR misses (Count)
board.cache_hierarchy.clusters.l2cache.HardPFReq.mshrMisses::total         3032                       # number of HardPFReq MSHR misses (Count)
[...]
board.processor.cores.core.executeStats0.numFpRegWrites            0                       # Number of times the floating registers were written (Count)
board.processor.cores.core.executeStats0.numIntRegReads     45228882                       # Number of times the integer registers were read (Count)
board.processor.cores.core.executeStats0.numIntRegWrites     30820750                       # Number of times the integer registers were written (Count)
board.processor.cores.core.executeStats0.numMemRefs     15416559                       # Number of memory refs (Count)
board.processor.cores.core.executeStats0.numMiscRegReads           26                       # Number of times the Misc registers were read (Count)
board.processor.cores.core.executeStats0.numVecAluAccesses            0                       # Number of vector alu accesses (Count)
board.processor.cores.core.executeStats0.numDiscardedOps            0                       # Number of ops (including micro ops) which were discarded before commit (Count)
board.processor.cores.core.fetch.predictedBranches      1062688                       # Number of branches that fetch has predicted taken (Count)
board.processor.cores.core.fetch.cycles      44900377                       # Number of cycles fetch has run and was not squashing or blocked (Cycle)
board.processor.cores.core.fetch.squashCycles        22340                       # Number of cycles fetch has spent squashing (Cycle)
board.processor.cores.core.fetch.cacheLines      2124775                       # Number of cache lines fetched (Count)
board.processor.cores.core.fetch.icacheSquashes          194                       # Number of outstanding Icache misses that were squashed (Count)
board.processor.cores.core.fetch.nisnDist::samples     44932516                       # Number of instructions fetched each cycle (Total) (Count)
board.processor.cores.core.fetch.nisnDist::mean     0.764660                       # Number of instructions fetched each cycle (Total) (Count)
board.processor.cores.core.fetch.nisnDist::stdev     0.948013                       # Number of instructions fetched each cycle (Total) (Count)
board.processor.cores.core.fetch.nisnDist::underflows            0      0.00%      0.00% # Number of instructions fetched each cycle (Total) (Count)
board.processor.cores.core.fetch.nisnDist::0     26722547     59.47%     59.47% # Number of instructions fetched each cycle (Total) (Count)
board.processor.cores.core.fetch.nisnDist::1      2061835      4.59%     64.06% # Number of instructions fetched each cycle (Total) (Count)
board.processor.cores.core.fetch.nisnDist::2     16148134     35.94%    100.00% # Number of instructions fetched each cycle (Total) (Count)
board.processor.cores.core.fetch.nisnDist::overflows            0      0.00%    100.00% # Number of instructions fetched each cycle (Total) (Count)
board.processor.cores.core.fetch.nisnDist::min_value            0                       # Number of instructions fetched each cycle (Total) (Count)
board.processor.cores.core.fetch.nisnDist::max_value            2                       # Number of instructions fetched each cycle (Total) (Count)
board.processor.cores.core.fetch.nisnDist::total     44932516                       # Number of instructions fetched each cycle (Total) (Count)
board.processor.cores.core.fetchStats0.numInsts     34358072                       # Number of instructions fetched (thread level) (Count)
board.processor.cores.core.fetchStats0.numOps            0                       # Number of ops (including micro ops) fetched (thread level) (Count)
board.processor.cores.core.fetchStats0.fetchRate     0.763904                       # Number of inst fetches per cycle ((Count/Cycle))
board.processor.cores.core.fetchStats0.numBranches      1065411                       # Number of branches fetched (Count)
board.processor.cores.core.fetchStats0.branchRate     0.023688                       # Number of branch fetches per cycle (Ratio)
board.processor.cores.core.fetchStats0.icacheStallCycles        20969                       # ICache total stall cycles (Cycle)
board.processor.cores.core.fetchStats0.numFetchSuspends            0                       # Number of times Execute suspended instruction fetching (Count)
board.processor.cores.core.iew.idleCycles            0                       # Number of cycles IEW is idle (Cycle)
board.processor.cores.core.iew.squashCycles        10873                       # Number of cycles IEW is squashing (Cycle)
board.processor.cores.core.iew.blockCycles           17                       # Number of cycles IEW is blocking (Cycle)
board.processor.cores.core.iew.unblockCycles            0                       # Number of cycles IEW is unblocking (Cycle)
board.processor.cores.core.iew.dispatchedInsts     33977709                       # Number of instructions dispatched to IQ (Count)
board.processor.cores.core.iew.dispSquashedInsts        10772                       # Number of squashed instructions skipped by dispatch (Count)
board.processor.cores.core.iew.dispLoadInsts     13324406                       # Number of dispatched load instructions (Count)
board.processor.cores.core.iew.dispStoreInsts      2092645                       # Number of dispatched store instructions (Count)
board.processor.cores.core.iew.dispNonSpecInsts           64                       # Number of dispatched non-speculative instructions (Count)
board.processor.cores.core.iew.iqFullEvents            0                       # Number of times the IQ has become full, causing a stall (Count)
board.processor.cores.core.iew.lsqFullEvents            0                       # Number of times the LSQ has become full, causing a stall (Count)
board.processor.cores.core.iew.memOrderViolationEvents           49                       # Number of memory order violations (Count)
board.processor.cores.core.iew.predictedTakenIncorrect        10402                       # Number of branches that were predicted taken incorrectly (Count)
board.processor.cores.core.iew.predictedNotTakenIncorrect          440                       # Number of branches that were predicted not taken incorrectly (Count)
board.processor.cores.core.iew.branchMispredicts        10842                       # Number of branch mispredicts detected at execute (Count)
board.processor.cores.core.iew.instsToCommit     33966176                       # Cumulative count of insts sent to commit (Count)
board.processor.cores.core.iew.writebackCount     33966106                       # Cumulative count of insts written-back (Count)
board.processor.cores.core.iew.producerInst     24126529                       # Number of instructions producing a value (Count)
board.processor.cores.core.iew.consumerInst     24127381                       # Number of instructions consuming a value (Count)
board.processor.cores.core.iew.wbRate        0.755189                       # Insts written-back per cycle ((Count/Cycle))
board.processor.cores.core.iew.wbFanout      0.999965                       # Average fanout of values written-back ((Count/Count))
board.processor.cores.core.lsq0.forwLoads      1040609                       # Number of loads that had data forwarded from stores (Count)
board.processor.cores.core.lsq0.squashedLoads        11049                       # Number of loads squashed (Count)
board.processor.cores.core.lsq0.ignoredResponses            1                       # Number of memory responses ignored because the instruction is squashed (Count)
board.processor.cores.core.lsq0.memOrderViolation           49                       # Number of memory ordering violations (Count)
board.processor.cores.core.lsq0.squashedStores          389                       # Number of stores squashed (Count)
board.processor.cores.core.lsq0.rescheduledLoads            1                       # Number of loads that were rescheduled (Count)
board.processor.cores.core.lsq0.blockedByCache            0                       # Number of times an access to memory failed due to the cache being blocked (Count)
board.processor.cores.core.lsq0.loadToUse::samples     13313357                       # Distribution of cycle latency between the first time a load is issued and its completion (Unspecified)
board.processor.cores.core.lsq0.loadToUse::mean     2.215507                       # Distribution of cycle latency between the first time a load is issued and its completion (Unspecified)
board.processor.cores.core.lsq0.loadToUse::stdev     1.186291                       # Distribution of cycle latency between the first time a load is issued and its completion (Unspecified)
board.processor.cores.core.lsq0.loadToUse::0-9     13250499     99.53%     99.53% # Distribution of cycle latency between the first time a load is issued and its completion (Unspecified)
board.processor.cores.core.lsq0.loadToUse::10-19        62460      0.47%    100.00% # Distribution of cycle latency between the first time a load is issued and its completion (Unspecified)
board.processor.cores.core.lsq0.loadToUse::20-29            5      0.00%    100.00% # Distribution of cycle latency between the first time a load is issued and its completion (Unspecified)
board.processor.cores.core.lsq0.loadToUse::30-39          219      0.00%    100.00% # Distribution of cycle latency between the first time a load is issued and its completion (Unspecified)
board.processor.cores.core.lsq0.loadToUse::40-49           31      0.00%    100.00% # Distribution of cycle latency between the first time a load is issued and its completion (Unspecified)
board.processor.cores.core.lsq0.loadToUse::80-89            2      0.00%    100.00% # Distribution of cycle latency between the first time a load is issued and its completion (Unspecified)
board.processor.cores.core.lsq0.loadToUse::90-99            1      0.00%    100.00% # Distribution of cycle latency between the first time a load is issued and its completion (Unspecified)
board.processor.cores.core.lsq0.loadToUse::130-139            2      0.00%    100.00% # Distribution of cycle latency between the first time a load is issued and its completion (Unspecified)
board.processor.cores.core.lsq0.loadToUse::140-149            1      0.00%    100.00% # Distribution of cycle latency between the first time a load is issued and its completion (Unspecified)
board.processor.cores.core.lsq0.loadToUse::150-159            5      0.00%    100.00% # Distribution of cycle latency between the first time a load is issued and its completion (Unspecified)
board.processor.cores.core.lsq0.loadToUse::160-169           57      0.00%    100.00% # Distribution of cycle latency between the first time a load is issued and its completion (Unspecified)
board.processor.cores.core.lsq0.loadToUse::170-179           23      0.00%    100.00% # Distribution of cycle latency between the first time a load is issued and its completion (Unspecified)
board.processor.cores.core.lsq0.loadToUse::180-189            3      0.00%    100.00% # Distribution of cycle latency between the first time a load is issued and its completion (Unspecified)
board.processor.cores.core.lsq0.loadToUse::200-209           22      0.00%    100.00% # Distribution of cycle latency between the first time a load is issued and its completion (Unspecified)
board.processor.cores.core.lsq0.loadToUse::210-219            4      0.00%    100.00% # Distribution of cycle latency between the first time a load is issued and its completion (Unspecified)
board.processor.cores.core.lsq0.loadToUse::220-229            1      0.00%    100.00% # Distribution of cycle latency between the first time a load is issued and its completion (Unspecified)
board.processor.cores.core.lsq0.loadToUse::240-249           11      0.00%    100.00% # Distribution of cycle latency between the first time a load is issued and its completion (Unspecified)
board.processor.cores.core.lsq0.loadToUse::260-269            1      0.00%    100.00% # Distribution of cycle latency between the first time a load is issued and its completion (Unspecified)
board.processor.cores.core.lsq0.loadToUse::270-279            4      0.00%    100.00% # Distribution of cycle latency between the first time a load is issued and its completion (Unspecified)
board.processor.cores.core.lsq0.loadToUse::280-289            3      0.00%    100.00% # Distribution of cycle latency between the first time a load is issued and its completion (Unspecified)
board.processor.cores.core.lsq0.loadToUse::290-299            1      0.00%    100.00% # Distribution of cycle latency between the first time a load is issued and its completion (Unspecified)
board.processor.cores.core.lsq0.loadToUse::overflows            2      0.00%    100.00% # Distribution of cycle latency between the first time a load is issued and its completion (Unspecified)
board.processor.cores.core.lsq0.loadToUse::min_value            2                       # Distribution of cycle latency between the first time a load is issued and its completion (Unspecified)
board.processor.cores.core.lsq0.loadToUse::max_value         1165                       # Distribution of cycle latency between the first time a load is issued and its completion (Unspecified)
board.processor.cores.core.lsq0.loadToUse::total     13313357                       # Distribution of cycle latency between the first time a load is issued and its completion (Unspecified)
board.processor.cores.core.mmu.dtb.readHits            0                       # read hits (Count)
board.processor.cores.core.mmu.dtb.readMisses            0                       # read misses (Count)
board.processor.cores.core.mmu.dtb.readAccesses            0                       # read accesses (Count)
board.processor.cores.core.mmu.dtb.writeHits            0                       # write hits (Count)
board.processor.cores.core.mmu.dtb.writeMisses            0                       # write misses (Count)
board.processor.cores.core.mmu.dtb.writeAccesses            0                       # write accesses (Count)
board.processor.cores.core.mmu.dtb.hits             0                       # Total TLB (read and write) hits (Count)
board.processor.cores.core.mmu.dtb.misses            0                       # Total TLB (read and write) misses (Count)
board.processor.cores.core.mmu.dtb.accesses            0                       # Total TLB (read and write) accesses (Count)
board.processor.cores.core.mmu.dtb.walker.num_4kb_walks            0                       # Completed page walks with 4KB pages (Count)
board.processor.cores.core.mmu.dtb.walker.num_2mb_walks            0                       # Completed page walks with 2MB pages (Count)
board.processor.cores.core.mmu.dtb.walker.power_state.pwrStateResidencyTicks::UNDEFINED  14977324350                       # Cumulative time (in ticks) in various power states (Tick)
board.processor.cores.core.mmu.itb.readHits            0                       # read hits (Count)
board.processor.cores.core.mmu.itb.readMisses            0                       # read misses (Count)
board.processor.cores.core.mmu.itb.readAccesses            0                       # read accesses (Count)
board.processor.cores.core.mmu.itb.writeHits            0                       # write hits (Count)
board.processor.cores.core.mmu.itb.writeMisses            0                       # write misses (Count)
board.processor.cores.core.mmu.itb.writeAccesses            0                       # write accesses (Count)
board.processor.cores.core.mmu.itb.hits             0                       # Total TLB (read and write) hits (Count)
board.processor.cores.core.mmu.itb.misses            0                       # Total TLB (read and write) misses (Count)
board.processor.cores.core.mmu.itb.accesses            0                       # Total TLB (read and write) accesses (Count)
board.processor.cores.core.mmu.itb.walker.num_4kb_walks            0                       # Completed page walks with 4KB pages (Count)
board.processor.cores.core.mmu.itb.walker.num_2mb_walks            0                       # Completed page walks with 2MB pages (Count)
board.processor.cores.core.mmu.itb.walker.power_state.pwrStateResidencyTicks::UNDEFINED  14977324350                       # Cumulative time (in ticks) in various power states (Tick)
board.processor.cores.core.power_state.pwrStateResidencyTicks::ON  14977324350                       # Cumulative time (in ticks) in various power states (Tick)
board.processor.cores.core.rename.squashCycles        10873                       # Number of cycles rename is squashing (Cycle)
board.processor.cores.core.rename.idleCycles      8761527                       # Number of cycles rename is idle (Cycle)
board.processor.cores.core.rename.blockCycles           62                       # Number of cycles rename is blocking (Cycle)
board.processor.cores.core.rename.serializeStallCycles         2607                       # count of cycles rename stalled for serializing inst (Cycle)
board.processor.cores.core.rename.runCycles     12434084                       # Number of cycles rename is running (Cycle)
board.processor.cores.core.rename.unblockCycles     23723363                       # Number of cycles rename is unblocking (Cycle)
board.processor.cores.core.rename.renamedInsts     33989101                       # Number of instructions processed by rename (Count)
board.processor.cores.core.rename.SQFullEvents         1531                       # Number of times rename has blocked due to SQ full (Count)
board.processor.cores.core.rename.fullRegistersEvents     21255994                       # Number of times there has been no free registers (Count)
board.processor.cores.core.rename.renamedOperands     30843191                       # Number of destination operands rename has renamed (Count)
board.processor.cores.core.rename.lookups     45272896                       # Number of register rename lookups that rename has made (Count)
board.processor.cores.core.rename.intLookups     45251857                       # Number of integer rename lookups (Count)
board.processor.cores.core.rename.fpLookups           12                       # Number of floating rename lookups (Count)
board.processor.cores.core.rename.committedMaps     30809748                       # Number of HB maps that are committed (Count)
board.processor.cores.core.rename.undoneMaps        33443                       # Number of HB maps that are undone due to squashing (Count)
board.processor.cores.core.rename.serializing           31                       # count of serializing insts renamed (Count)
board.processor.cores.core.rename.tempSerializing           31                       # count of temporary serializing insts renamed (Count)
board.processor.cores.core.rename.skidInsts     18384348                       # count of insts added to the skid buffer (Count)
board.processor.cores.core.rob.reads         74738737                       # The number of ROB reads (Count)
board.processor.cores.core.rob.writes        67966276                       # The number of ROB writes (Count)
board.processor.cores.core.thread_0.numInsts     33954546                       # Number of Instructions committed (Count)
board.processor.cores.core.thread_0.numOps     33954560                       # Number of Ops committed (Count)
board.processor.cores.core.thread_0.numMemRefs            0                       # Number of Memory References (Count)
board.processor.cores.core.workload.numSyscalls           14                       # Number of system calls (Count)
board.workload.inst.arm                             0                       # number of arm instructions executed (Count)
board.workload.inst.quiesce                         0                       # number of quiesce instructions executed (Count)

---------- End Simulation Statistics   ----------
